version 3
run General-0-20250715-15:33:04-31668
attr configname General
attr datetime 20250715-15:33:04
attr datetimef 20250715-153304
attr experiment General
attr inifile omnetpp.ini
attr iterationvars ""
attr iterationvarsd ""
attr iterationvarsf ""
attr measurement ""
attr network WirelessNetworkTenHosts
attr processid 31668
attr repetition 0
attr replication #0
attr resultdir results
attr runnumber 0
attr seedset 0
config image-path ../../inet4.5/images
config network WirelessNetworkTenHosts
config *.host*.ipv4.arp.typename GlobalArp
config *.host*.wlan[0].typename AckingWirelessInterface
config *.host*.wlan[0].mac.useAck false
config *.host*.wlan[0].mac.fullDuplex false
config *.host*.wlan[0].radio.transmitter.communicationRange 500m
config *.host*.wlan[0].radio.receiver.ignoreInterference true
config *.host*.wlan[0].mac.headerLength 23B
config *.host*.**.bitrate 1Mbps
config *.host*.numApps 2
config *.host*.app[0].typename nsbAppSink
config *.host*.app[0].localPort 5000
config *.host*.app[1].typename nsbBasicApp
config *.host*.app[1].destAddresses "\"255.255.255.0\""
config *.host*.app[1].destPort 5000
config *.host*.app[1].messageLength 1000B
config *.host*.app[1].sendInterval exponential(12ms)
config *.host*.app[1].packetName "\"UDPData\""
config *.host*.app[0].serverAddress "\"127.0.0.1\""
config *.host*.app[1].serverAddress "\"127.0.0.1\""
config *.host*.app[0].serverPort 65432
config *.host*.app[1].serverPort 65432
config *.configurator.config "xml(\"<config><interface hosts='host*' names='wlan0' address='10.0.0.x' netmask='255.255.255.0'/></config>\")"
config *.configurator.addStaticRoutes true
config *.configurator.addDefaultRoutes true
config *.configurator.assignAddresses true
config *.configurator.dumpAddresses true
config *.configurator.dumpTopology true
config *.configurator.dumpLinks true
config *.configurator.dumpRoutes true
config *.visualizer.routingTableVisualizer.displayRoutingTables true
config **.statistic-recording true

par WirelessNetworkTenHosts.visualizer.sceneVisualizer typename "\"inet.visualizer.canvas.scene.SceneCanvasVisualizer\""
par WirelessNetworkTenHosts.visualizer.sceneVisualizer visualizationTargetModule "\"^.^\""
par WirelessNetworkTenHosts.visualizer.sceneVisualizer visualizationSubjectModule "\"^.^\""
par WirelessNetworkTenHosts.visualizer.sceneVisualizer tags "\"\""
par WirelessNetworkTenHosts.visualizer.sceneVisualizer physicalEnvironmentModule "\"physicalEnvironment\""
par WirelessNetworkTenHosts.visualizer.sceneVisualizer networkNodeVisualizerModule "\"^.networkNodeVisualizer\""
par WirelessNetworkTenHosts.visualizer.sceneVisualizer axisLength "nan m"
attr mutable ""
attr unit m
par WirelessNetworkTenHosts.visualizer.sceneVisualizer animationSpeed 0
par WirelessNetworkTenHosts.visualizer.sceneVisualizer sceneMinX "nan m"
attr unit m
par WirelessNetworkTenHosts.visualizer.sceneVisualizer sceneMinY "nan m"
attr unit m
par WirelessNetworkTenHosts.visualizer.sceneVisualizer sceneMinZ "nan m"
attr unit m
par WirelessNetworkTenHosts.visualizer.sceneVisualizer sceneMaxX "nan m"
attr unit m
par WirelessNetworkTenHosts.visualizer.sceneVisualizer sceneMaxY "nan m"
attr unit m
par WirelessNetworkTenHosts.visualizer.sceneVisualizer sceneMaxZ "nan m"
attr unit m
par WirelessNetworkTenHosts.visualizer.sceneVisualizer zIndex 0
par WirelessNetworkTenHosts.visualizer.sceneVisualizer viewAngle "\"x right y down z out\""
attr mutable ""
par WirelessNetworkTenHosts.visualizer.sceneVisualizer viewScale "\"1 1\""
attr mutable ""
par WirelessNetworkTenHosts.visualizer.sceneVisualizer viewTranslation "\"0 0\""
attr mutable ""
par WirelessNetworkTenHosts.visualizer.sceneVisualizer descriptionFigure "\"\""
par WirelessNetworkTenHosts.visualizer.physicalEnvironmentVisualizer typename "\"inet.visualizer.canvas.environment.PhysicalEnvironmentCanvasVisualizer\""
par WirelessNetworkTenHosts.visualizer.physicalEnvironmentVisualizer visualizationTargetModule "\"^.^\""
par WirelessNetworkTenHosts.visualizer.physicalEnvironmentVisualizer visualizationSubjectModule "\"^.^\""
par WirelessNetworkTenHosts.visualizer.physicalEnvironmentVisualizer tags "\"\""
par WirelessNetworkTenHosts.visualizer.physicalEnvironmentVisualizer physicalEnvironmentModule "\"physicalEnvironment\""
par WirelessNetworkTenHosts.visualizer.physicalEnvironmentVisualizer displayObjects true
par WirelessNetworkTenHosts.visualizer.physicalEnvironmentVisualizer zIndex 0
par WirelessNetworkTenHosts.visualizer.networkNodeVisualizer typename "\"inet.visualizer.canvas.scene.NetworkNodeCanvasVisualizer\""
par WirelessNetworkTenHosts.visualizer.networkNodeVisualizer visualizationTargetModule "\"^.^\""
par WirelessNetworkTenHosts.visualizer.networkNodeVisualizer visualizationSubjectModule "\"^.^\""
par WirelessNetworkTenHosts.visualizer.networkNodeVisualizer tags "\"\""
par WirelessNetworkTenHosts.visualizer.networkNodeVisualizer nodeFilter "\"*\""
attr mutable ""
par WirelessNetworkTenHosts.visualizer.networkNodeVisualizer annotationSpacing 4
par WirelessNetworkTenHosts.visualizer.networkNodeVisualizer placementPenalty 10
par WirelessNetworkTenHosts.visualizer.networkNodeVisualizer zIndex 0
par WirelessNetworkTenHosts.visualizer.networkConnectionVisualizer typename "\"inet.visualizer.canvas.scene.NetworkConnectionCanvasVisualizer\""
par WirelessNetworkTenHosts.visualizer.networkConnectionVisualizer visualizationTargetModule "\"^.^\""
par WirelessNetworkTenHosts.visualizer.networkConnectionVisualizer visualizationSubjectModule "\"^.^\""
par WirelessNetworkTenHosts.visualizer.networkConnectionVisualizer tags "\"\""
par WirelessNetworkTenHosts.visualizer.networkConnectionVisualizer displayNetworkConnections true
par WirelessNetworkTenHosts.visualizer.networkConnectionVisualizer nodeFilter "\"\""
attr mutable ""
par WirelessNetworkTenHosts.visualizer.networkConnectionVisualizer lineColor "\"black\""
par WirelessNetworkTenHosts.visualizer.networkConnectionVisualizer lineStyle "\"solid\""
par WirelessNetworkTenHosts.visualizer.networkConnectionVisualizer lineWidth 1
par WirelessNetworkTenHosts.visualizer.networkConnectionVisualizer zIndex 0
par WirelessNetworkTenHosts.visualizer.mobilityVisualizer typename "\"inet.visualizer.canvas.mobility.MobilityCanvasVisualizer\""
par WirelessNetworkTenHosts.visualizer.mobilityVisualizer visualizationTargetModule "\"^.^\""
par WirelessNetworkTenHosts.visualizer.mobilityVisualizer visualizationSubjectModule "\"^.^\""
par WirelessNetworkTenHosts.visualizer.mobilityVisualizer tags "\"\""
par WirelessNetworkTenHosts.visualizer.mobilityVisualizer networkNodeVisualizerModule "\"^.networkNodeVisualizer\""
par WirelessNetworkTenHosts.visualizer.mobilityVisualizer displayMobility true
par WirelessNetworkTenHosts.visualizer.mobilityVisualizer animationSpeed 0
par WirelessNetworkTenHosts.visualizer.mobilityVisualizer moduleFilter "\"**.mobility\""
attr mutable ""
par WirelessNetworkTenHosts.visualizer.mobilityVisualizer displayPositions false
par WirelessNetworkTenHosts.visualizer.mobilityVisualizer positionCircleRadius 4
par WirelessNetworkTenHosts.visualizer.mobilityVisualizer positionCircleLineWidth 1
par WirelessNetworkTenHosts.visualizer.mobilityVisualizer positionCircleLineColor "\"dark\""
par WirelessNetworkTenHosts.visualizer.mobilityVisualizer positionCircleFillColor "\"dark\""
par WirelessNetworkTenHosts.visualizer.mobilityVisualizer displayOrientations false
par WirelessNetworkTenHosts.visualizer.mobilityVisualizer orientationPieRadius 32
par WirelessNetworkTenHosts.visualizer.mobilityVisualizer orientationPieSize 0.2
par WirelessNetworkTenHosts.visualizer.mobilityVisualizer orientationPieOpacity 0.25
par WirelessNetworkTenHosts.visualizer.mobilityVisualizer orientationLineColor "\"black\""
par WirelessNetworkTenHosts.visualizer.mobilityVisualizer orientationLineStyle "\"solid\""
par WirelessNetworkTenHosts.visualizer.mobilityVisualizer orientationLineWidth 1
par WirelessNetworkTenHosts.visualizer.mobilityVisualizer orientationFillColor "\"blue\""
par WirelessNetworkTenHosts.visualizer.mobilityVisualizer displayVelocities false
par WirelessNetworkTenHosts.visualizer.mobilityVisualizer velocityArrowScale 1
par WirelessNetworkTenHosts.visualizer.mobilityVisualizer velocityLineColor "\"black\""
par WirelessNetworkTenHosts.visualizer.mobilityVisualizer velocityLineStyle "\"solid\""
par WirelessNetworkTenHosts.visualizer.mobilityVisualizer velocityLineWidth 1
par WirelessNetworkTenHosts.visualizer.mobilityVisualizer displayMovementTrails false
par WirelessNetworkTenHosts.visualizer.mobilityVisualizer movementTrailLineColor "\"dark\""
par WirelessNetworkTenHosts.visualizer.mobilityVisualizer movementTrailLineStyle "\"solid\""
par WirelessNetworkTenHosts.visualizer.mobilityVisualizer movementTrailLineWidth 1
par WirelessNetworkTenHosts.visualizer.mobilityVisualizer trailLength 100
par WirelessNetworkTenHosts.visualizer.mobilityVisualizer zIndex 0
par WirelessNetworkTenHosts.visualizer.statisticVisualizer typename "\"inet.visualizer.canvas.common.StatisticCanvasVisualizer\""
par WirelessNetworkTenHosts.visualizer.statisticVisualizer visualizationTargetModule "\"^.^\""
par WirelessNetworkTenHosts.visualizer.statisticVisualizer visualizationSubjectModule "\"^.^\""
par WirelessNetworkTenHosts.visualizer.statisticVisualizer tags "\"\""
par WirelessNetworkTenHosts.visualizer.statisticVisualizer networkNodeVisualizerModule "\"^.networkNodeVisualizer\""
par WirelessNetworkTenHosts.visualizer.statisticVisualizer displayStatistics true
par WirelessNetworkTenHosts.visualizer.statisticVisualizer signalName "\"\""
par WirelessNetworkTenHosts.visualizer.statisticVisualizer statisticName "\"\""
par WirelessNetworkTenHosts.visualizer.statisticVisualizer statisticUnit "\"\""
par WirelessNetworkTenHosts.visualizer.statisticVisualizer statisticExpression "\"\""
par WirelessNetworkTenHosts.visualizer.statisticVisualizer sourceFilter "\"**\""
attr mutable ""
par WirelessNetworkTenHosts.visualizer.statisticVisualizer format "\"%n: %v %u\""
attr mutable ""
par WirelessNetworkTenHosts.visualizer.statisticVisualizer unit "\"\""
par WirelessNetworkTenHosts.visualizer.statisticVisualizer font "\"<default>\""
par WirelessNetworkTenHosts.visualizer.statisticVisualizer textColor "\"black\""
par WirelessNetworkTenHosts.visualizer.statisticVisualizer backgroundColor "\"white\""
par WirelessNetworkTenHosts.visualizer.statisticVisualizer opacity 1
par WirelessNetworkTenHosts.visualizer.statisticVisualizer placementHint "\"top\""
par WirelessNetworkTenHosts.visualizer.statisticVisualizer placementPriority 0
par WirelessNetworkTenHosts.visualizer.statisticVisualizer zIndex 10
par WirelessNetworkTenHosts.visualizer.statisticVisualizer propertyName "\"\""
par WirelessNetworkTenHosts.visualizer.statisticVisualizer propertyIndex "\"\""
par WirelessNetworkTenHosts.visualizer.infoVisualizer typename "\"inet.visualizer.canvas.common.InfoCanvasVisualizer\""
par WirelessNetworkTenHosts.visualizer.infoVisualizer visualizationTargetModule "\"^.^\""
par WirelessNetworkTenHosts.visualizer.infoVisualizer visualizationSubjectModule "\"^.^\""
par WirelessNetworkTenHosts.visualizer.infoVisualizer tags "\"\""
par WirelessNetworkTenHosts.visualizer.infoVisualizer networkNodeVisualizerModule "\"^.networkNodeVisualizer\""
par WirelessNetworkTenHosts.visualizer.infoVisualizer displayInfos true
par WirelessNetworkTenHosts.visualizer.infoVisualizer modules "\"\""
attr mutable ""
par WirelessNetworkTenHosts.visualizer.infoVisualizer format "\"%t\""
attr mutable ""
par WirelessNetworkTenHosts.visualizer.infoVisualizer font "\"<default>\""
par WirelessNetworkTenHosts.visualizer.infoVisualizer textColor "\"black\""
par WirelessNetworkTenHosts.visualizer.infoVisualizer backgroundColor "\"white\""
par WirelessNetworkTenHosts.visualizer.infoVisualizer opacity 1
par WirelessNetworkTenHosts.visualizer.infoVisualizer placementHint "\"top\""
par WirelessNetworkTenHosts.visualizer.infoVisualizer placementPriority 0
par WirelessNetworkTenHosts.visualizer.infoVisualizer zIndex 10
par WirelessNetworkTenHosts.visualizer.energyStorageVisualizer typename "\"inet.visualizer.canvas.power.EnergyStorageCanvasVisualizer\""
par WirelessNetworkTenHosts.visualizer.energyStorageVisualizer visualizationTargetModule "\"^.^\""
par WirelessNetworkTenHosts.visualizer.energyStorageVisualizer visualizationSubjectModule "\"^.^\""
par WirelessNetworkTenHosts.visualizer.energyStorageVisualizer tags "\"\""
par WirelessNetworkTenHosts.visualizer.energyStorageVisualizer networkNodeVisualizerModule "\"^.networkNodeVisualizer\""
par WirelessNetworkTenHosts.visualizer.energyStorageVisualizer displayEnergyStorages false
par WirelessNetworkTenHosts.visualizer.energyStorageVisualizer energyStorageFilter "\"**\""
par WirelessNetworkTenHosts.visualizer.energyStorageVisualizer color "\"green\""
par WirelessNetworkTenHosts.visualizer.energyStorageVisualizer width 8
par WirelessNetworkTenHosts.visualizer.energyStorageVisualizer height 24
par WirelessNetworkTenHosts.visualizer.energyStorageVisualizer spacing 2
par WirelessNetworkTenHosts.visualizer.energyStorageVisualizer placementHint "\"right\""
par WirelessNetworkTenHosts.visualizer.energyStorageVisualizer placementPriority 0
par WirelessNetworkTenHosts.visualizer.energyStorageVisualizer zIndex 10
par WirelessNetworkTenHosts.visualizer.mediumVisualizer typename "\"inet.visualizer.canvas.physicallayer.MediumCanvasVisualizer\""
par WirelessNetworkTenHosts.visualizer.mediumVisualizer visualizationTargetModule "\"^.^\""
par WirelessNetworkTenHosts.visualizer.mediumVisualizer visualizationSubjectModule "\"^.^\""
par WirelessNetworkTenHosts.visualizer.mediumVisualizer tags "\"\""
par WirelessNetworkTenHosts.visualizer.mediumVisualizer mediumModule "\"radioMedium\""
par WirelessNetworkTenHosts.visualizer.mediumVisualizer networkNodeVisualizerModule "\"^.networkNodeVisualizer\""
par WirelessNetworkTenHosts.visualizer.mediumVisualizer nodeFilter "\"*\""
attr mutable ""
par WirelessNetworkTenHosts.visualizer.mediumVisualizer interfaceFilter "\"*\""
attr mutable ""
par WirelessNetworkTenHosts.visualizer.mediumVisualizer packetFilter "(omnetpp::cValueHolder)holder: \"*\""
attr mutable ""
par WirelessNetworkTenHosts.visualizer.mediumVisualizer displaySignals false
par WirelessNetworkTenHosts.visualizer.mediumVisualizer signalColor "\"dark\""
par WirelessNetworkTenHosts.visualizer.mediumVisualizer signalPropagationAnimationSpeed "nan "
attr mutable ""
par WirelessNetworkTenHosts.visualizer.mediumVisualizer signalPropagationAnimationTime 1s
attr unit s
par WirelessNetworkTenHosts.visualizer.mediumVisualizer signalPropagationAdditionalTime 0s
attr unit s
par WirelessNetworkTenHosts.visualizer.mediumVisualizer signalTransmissionAnimationSpeed "nan "
attr mutable ""
par WirelessNetworkTenHosts.visualizer.mediumVisualizer signalTransmissionAnimationTime 1s
attr unit s
par WirelessNetworkTenHosts.visualizer.mediumVisualizer signalAnimationSpeedChangeTimeMode "\"realTime\""
attr enum realTime,animationTime,simulationTime
par WirelessNetworkTenHosts.visualizer.mediumVisualizer signalAnimationSpeedChangeTime 1s
attr unit s
par WirelessNetworkTenHosts.visualizer.mediumVisualizer displaySignalDepartures false
par WirelessNetworkTenHosts.visualizer.mediumVisualizer signalDepartureImage "\"misc/signal_departure.png\""
par WirelessNetworkTenHosts.visualizer.mediumVisualizer signalDeparturePlacementHint "\"topCenter\""
par WirelessNetworkTenHosts.visualizer.mediumVisualizer signalDeparturePlacementPriority 1
par WirelessNetworkTenHosts.visualizer.mediumVisualizer displaySignalArrivals false
par WirelessNetworkTenHosts.visualizer.mediumVisualizer signalArrivalImage "\"misc/signal_arrival.png\""
par WirelessNetworkTenHosts.visualizer.mediumVisualizer signalArrivalPlacementHint "\"topCenter\""
par WirelessNetworkTenHosts.visualizer.mediumVisualizer signalArrivalPlacementPriority -1
par WirelessNetworkTenHosts.visualizer.mediumVisualizer displayCommunicationRanges false
par WirelessNetworkTenHosts.visualizer.mediumVisualizer communicationRangeLineColor "\"blue\""
par WirelessNetworkTenHosts.visualizer.mediumVisualizer communicationRangeLineStyle "\"solid\""
par WirelessNetworkTenHosts.visualizer.mediumVisualizer communicationRangeLineWidth 1
par WirelessNetworkTenHosts.visualizer.mediumVisualizer displayInterferenceRanges false
par WirelessNetworkTenHosts.visualizer.mediumVisualizer interferenceRangeLineColor "\"gray\""
par WirelessNetworkTenHosts.visualizer.mediumVisualizer interferenceRangeLineStyle "\"solid\""
par WirelessNetworkTenHosts.visualizer.mediumVisualizer interferenceRangeLineWidth 1
par WirelessNetworkTenHosts.visualizer.mediumVisualizer autoPowerAxis true
par WirelessNetworkTenHosts.visualizer.mediumVisualizer signalMinPower "inf dBmW"
attr unit dBmW
par WirelessNetworkTenHosts.visualizer.mediumVisualizer signalMaxPower 0dBmW
attr unit dBmW
par WirelessNetworkTenHosts.visualizer.mediumVisualizer signalMinPowerDensity "inf dBmWpMHz"
attr unit dBmWpMHz
par WirelessNetworkTenHosts.visualizer.mediumVisualizer signalMaxPowerDensity "-inf dBmWpMHz"
attr unit dBmWpMHz
par WirelessNetworkTenHosts.visualizer.mediumVisualizer autoTimeAxis true
par WirelessNetworkTenHosts.visualizer.mediumVisualizer signalMinTime 0s
attr unit s
par WirelessNetworkTenHosts.visualizer.mediumVisualizer signalMaxTime 0s
attr unit s
par WirelessNetworkTenHosts.visualizer.mediumVisualizer autoFrequencyAxis true
par WirelessNetworkTenHosts.visualizer.mediumVisualizer signalMinFrequency "inf Hz"
attr unit Hz
par WirelessNetworkTenHosts.visualizer.mediumVisualizer signalMaxFrequency "-inf Hz"
attr unit Hz
par WirelessNetworkTenHosts.visualizer.mediumVisualizer displayMainPowerDensityMap false
par WirelessNetworkTenHosts.visualizer.mediumVisualizer mainPowerDensityMapPixmapDensity 1
par WirelessNetworkTenHosts.visualizer.mediumVisualizer mainPowerDensityMapMinX 0
par WirelessNetworkTenHosts.visualizer.mediumVisualizer mainPowerDensityMapMaxX "nan "
par WirelessNetworkTenHosts.visualizer.mediumVisualizer mainPowerDensityMapMinY 0
par WirelessNetworkTenHosts.visualizer.mediumVisualizer mainPowerDensityMapMaxY "nan "
par WirelessNetworkTenHosts.visualizer.mediumVisualizer mainPowerDensityMapZ 0
par WirelessNetworkTenHosts.visualizer.mediumVisualizer mainPowerDensityMapFigureXTickCount 3
par WirelessNetworkTenHosts.visualizer.mediumVisualizer mainPowerDensityMapFigureYTickCount 3
par WirelessNetworkTenHosts.visualizer.mediumVisualizer displayPowerDensityMaps false
par WirelessNetworkTenHosts.visualizer.mediumVisualizer powerDensityMapMode "\"auto\""
attr enum total,signal,auto
par WirelessNetworkTenHosts.visualizer.mediumVisualizer powerDensityMapPixelMode "\"mean\""
attr enum sample,partition,mean
par WirelessNetworkTenHosts.visualizer.mediumVisualizer powerDensityMapApproximationSize 10
par WirelessNetworkTenHosts.visualizer.mediumVisualizer powerDensityMapCenterFrequency "nan Hz"
attr mutable ""
attr unit Hz
par WirelessNetworkTenHosts.visualizer.mediumVisualizer powerDensityMapBandwidth 0Hz
attr mutable ""
attr unit Hz
par WirelessNetworkTenHosts.visualizer.mediumVisualizer powerDensityMapFigureWidth 200
par WirelessNetworkTenHosts.visualizer.mediumVisualizer powerDensityMapFigureHeight 120
par WirelessNetworkTenHosts.visualizer.mediumVisualizer powerDensityMapPixmapWidth 200
par WirelessNetworkTenHosts.visualizer.mediumVisualizer powerDensityMapPixmapHeight 120
par WirelessNetworkTenHosts.visualizer.mediumVisualizer powerDensityMapZ 0
par WirelessNetworkTenHosts.visualizer.mediumVisualizer powerDensityMapFigureXTickCount 3
par WirelessNetworkTenHosts.visualizer.mediumVisualizer powerDensityMapFigureYTickCount 3
par WirelessNetworkTenHosts.visualizer.mediumVisualizer displaySpectrums false
par WirelessNetworkTenHosts.visualizer.mediumVisualizer spectrumMode "\"auto\""
attr enum total,signal,auto
par WirelessNetworkTenHosts.visualizer.mediumVisualizer spectrumFigureWidth 200
par WirelessNetworkTenHosts.visualizer.mediumVisualizer spectrumFigureHeight 120
par WirelessNetworkTenHosts.visualizer.mediumVisualizer spectrumFigureXTickCount 3
par WirelessNetworkTenHosts.visualizer.mediumVisualizer spectrumFigureYTickCount 5
par WirelessNetworkTenHosts.visualizer.mediumVisualizer spectrumFigureInterpolationSize 5
par WirelessNetworkTenHosts.visualizer.mediumVisualizer spectrumPlacementHint "\"bottomCenter\""
par WirelessNetworkTenHosts.visualizer.mediumVisualizer spectrumPlacementPriority -1
par WirelessNetworkTenHosts.visualizer.mediumVisualizer displaySpectrograms false
par WirelessNetworkTenHosts.visualizer.mediumVisualizer spectrogramMode "\"auto\""
attr enum total,signal,auto
par WirelessNetworkTenHosts.visualizer.mediumVisualizer spectrogramPixelMode "\"mean\""
attr enum sample,partition,mean
par WirelessNetworkTenHosts.visualizer.mediumVisualizer spectrogramFigureWidth 200
par WirelessNetworkTenHosts.visualizer.mediumVisualizer spectrogramFigureHeight 120
par WirelessNetworkTenHosts.visualizer.mediumVisualizer spectrogramPixmapWidth 200
par WirelessNetworkTenHosts.visualizer.mediumVisualizer spectrogramPixmapHeight 120
par WirelessNetworkTenHosts.visualizer.mediumVisualizer spectrogramFigureXTickCount 3
par WirelessNetworkTenHosts.visualizer.mediumVisualizer spectrogramFigureYTickCount 5
par WirelessNetworkTenHosts.visualizer.mediumVisualizer spectrogramPlacementHint "\"bottomCenter\""
par WirelessNetworkTenHosts.visualizer.mediumVisualizer spectrogramPlacementPriority -1
par WirelessNetworkTenHosts.visualizer.mediumVisualizer zIndex 0
par WirelessNetworkTenHosts.visualizer.mediumVisualizer signalShape "\"ring\""
attr enum ring,sphere
par WirelessNetworkTenHosts.visualizer.mediumVisualizer signalOpacity 0.5
par WirelessNetworkTenHosts.visualizer.mediumVisualizer signalRingCount 20
par WirelessNetworkTenHosts.visualizer.mediumVisualizer signalRingSize 50m
attr unit m
par WirelessNetworkTenHosts.visualizer.mediumVisualizer signalFadingDistance 50m
attr unit m
par WirelessNetworkTenHosts.visualizer.mediumVisualizer signalFadingFactor 1.2
par WirelessNetworkTenHosts.visualizer.mediumVisualizer signalWaveCount 20
par WirelessNetworkTenHosts.visualizer.mediumVisualizer signalWaveLength 50m
attr unit m
par WirelessNetworkTenHosts.visualizer.mediumVisualizer signalWaveWidth 10m
attr unit m
par WirelessNetworkTenHosts.visualizer.mediumVisualizer signalWaveFadingAnimationSpeedFactor 1
par WirelessNetworkTenHosts.visualizer.mediumVisualizer displayCommunicationHeat false
par WirelessNetworkTenHosts.visualizer.obstacleLossVisualizer typename "\"inet.visualizer.canvas.physicallayer.TracingObstacleLossCanvasVisualizer\""
par WirelessNetworkTenHosts.visualizer.obstacleLossVisualizer visualizationTargetModule "\"^.^\""
par WirelessNetworkTenHosts.visualizer.obstacleLossVisualizer visualizationSubjectModule "\"^.^\""
par WirelessNetworkTenHosts.visualizer.obstacleLossVisualizer tags "\"\""
par WirelessNetworkTenHosts.visualizer.obstacleLossVisualizer displayIntersections false
par WirelessNetworkTenHosts.visualizer.obstacleLossVisualizer intersectionLineColor "\"red\""
par WirelessNetworkTenHosts.visualizer.obstacleLossVisualizer intersectionLineStyle "\"solid\""
par WirelessNetworkTenHosts.visualizer.obstacleLossVisualizer intersectionLineWidth 1
par WirelessNetworkTenHosts.visualizer.obstacleLossVisualizer displayFaceNormalVectors false
par WirelessNetworkTenHosts.visualizer.obstacleLossVisualizer faceNormalLineColor "\"grey\""
par WirelessNetworkTenHosts.visualizer.obstacleLossVisualizer faceNormalLineStyle "\"solid\""
par WirelessNetworkTenHosts.visualizer.obstacleLossVisualizer faceNormalLineWidth 1
par WirelessNetworkTenHosts.visualizer.obstacleLossVisualizer fadeOutMode "\"realTime\""
attr enum realTime,animationTime,simulationTime
par WirelessNetworkTenHosts.visualizer.obstacleLossVisualizer fadeOutTime 1s
attr unit s
par WirelessNetworkTenHosts.visualizer.obstacleLossVisualizer fadeOutAnimationSpeed 0
par WirelessNetworkTenHosts.visualizer.obstacleLossVisualizer zIndex 0
par WirelessNetworkTenHosts.visualizer.packetDropVisualizer typename "\"inet.visualizer.canvas.common.PacketDropCanvasVisualizer\""
par WirelessNetworkTenHosts.visualizer.packetDropVisualizer visualizationTargetModule "\"^.^\""
par WirelessNetworkTenHosts.visualizer.packetDropVisualizer visualizationSubjectModule "\"^.^\""
par WirelessNetworkTenHosts.visualizer.packetDropVisualizer tags "\"\""
par WirelessNetworkTenHosts.visualizer.packetDropVisualizer displayPacketDrops false
par WirelessNetworkTenHosts.visualizer.packetDropVisualizer nodeFilter "\"*\""
attr mutable ""
par WirelessNetworkTenHosts.visualizer.packetDropVisualizer interfaceFilter "\"*\""
attr mutable ""
par WirelessNetworkTenHosts.visualizer.packetDropVisualizer packetFilter "(omnetpp::cValueHolder)holder: \"*\""
attr mutable ""
par WirelessNetworkTenHosts.visualizer.packetDropVisualizer detailsFilter "\"*\""
attr mutable ""
par WirelessNetworkTenHosts.visualizer.packetDropVisualizer icon "\"msg/packet_s\""
par WirelessNetworkTenHosts.visualizer.packetDropVisualizer iconTintAmount 1
par WirelessNetworkTenHosts.visualizer.packetDropVisualizer iconTintColor "\"dark\""
par WirelessNetworkTenHosts.visualizer.packetDropVisualizer labelFormat "\"%n\""
attr mutable ""
par WirelessNetworkTenHosts.visualizer.packetDropVisualizer labelFont "\"<default>\""
par WirelessNetworkTenHosts.visualizer.packetDropVisualizer labelColor "\"black\""
par WirelessNetworkTenHosts.visualizer.packetDropVisualizer fadeOutMode "\"realTime\""
attr enum realTime,animationTime,simulationTime
par WirelessNetworkTenHosts.visualizer.packetDropVisualizer fadeOutTime 1s
attr unit s
par WirelessNetworkTenHosts.visualizer.packetDropVisualizer fadeOutAnimationSpeed 0
par WirelessNetworkTenHosts.visualizer.packetDropVisualizer zIndex 10
par WirelessNetworkTenHosts.visualizer.packetDropVisualizer dx 32
par WirelessNetworkTenHosts.visualizer.packetDropVisualizer dy 64
par WirelessNetworkTenHosts.visualizer.packetFlowVisualizer typename "\"inet.visualizer.canvas.flow.PacketFlowCanvasVisualizer\""
par WirelessNetworkTenHosts.visualizer.packetFlowVisualizer visualizationTargetModule "\"^.^\""
par WirelessNetworkTenHosts.visualizer.packetFlowVisualizer visualizationSubjectModule "\"^.^\""
par WirelessNetworkTenHosts.visualizer.packetFlowVisualizer tags "\"\""
par WirelessNetworkTenHosts.visualizer.packetFlowVisualizer displayRoutes false
par WirelessNetworkTenHosts.visualizer.packetFlowVisualizer startPathSignal "\"packetFlowStarted\""
par WirelessNetworkTenHosts.visualizer.packetFlowVisualizer extendPathSignal "\"packetReceivedFromLower\""
par WirelessNetworkTenHosts.visualizer.packetFlowVisualizer endPathSignal "\"packetFlowEnded\""
par WirelessNetworkTenHosts.visualizer.packetFlowVisualizer nodeFilter "\"*\""
attr mutable ""
par WirelessNetworkTenHosts.visualizer.packetFlowVisualizer packetFilter "(omnetpp::cValueHolder)holder: \"*\""
attr mutable ""
par WirelessNetworkTenHosts.visualizer.packetFlowVisualizer lineColor "\"dark\""
par WirelessNetworkTenHosts.visualizer.packetFlowVisualizer lineStyle "\"dashed\""
par WirelessNetworkTenHosts.visualizer.packetFlowVisualizer lineWidth 3
par WirelessNetworkTenHosts.visualizer.packetFlowVisualizer lineSmooth false
par WirelessNetworkTenHosts.visualizer.packetFlowVisualizer lineShift 16
par WirelessNetworkTenHosts.visualizer.packetFlowVisualizer lineShiftMode "\"normal\""
par WirelessNetworkTenHosts.visualizer.packetFlowVisualizer lineContactSpacing 3
par WirelessNetworkTenHosts.visualizer.packetFlowVisualizer lineContactMode "\"rectangular\""
attr enum circular,rectangular
par WirelessNetworkTenHosts.visualizer.packetFlowVisualizer labelFormat "\"%L %p pk (%l)\""
par WirelessNetworkTenHosts.visualizer.packetFlowVisualizer labelFont "\"<default>, 8px\""
par WirelessNetworkTenHosts.visualizer.packetFlowVisualizer labelColor "\"\""
par WirelessNetworkTenHosts.visualizer.packetFlowVisualizer fadeOutMode "\"realTime\""
attr enum realTime,animationTime,simulationTime
par WirelessNetworkTenHosts.visualizer.packetFlowVisualizer fadeOutTime 0s
attr unit s
par WirelessNetworkTenHosts.visualizer.packetFlowVisualizer fadeOutAnimationSpeed 0
par WirelessNetworkTenHosts.visualizer.packetFlowVisualizer zIndex 4
par WirelessNetworkTenHosts.visualizer.queueVisualizer typename "\"inet.visualizer.canvas.common.QueueCanvasVisualizer\""
par WirelessNetworkTenHosts.visualizer.queueVisualizer visualizationTargetModule "\"^.^\""
par WirelessNetworkTenHosts.visualizer.queueVisualizer visualizationSubjectModule "\"^.^\""
par WirelessNetworkTenHosts.visualizer.queueVisualizer tags "\"\""
par WirelessNetworkTenHosts.visualizer.queueVisualizer networkNodeVisualizerModule "\"^.networkNodeVisualizer\""
par WirelessNetworkTenHosts.visualizer.queueVisualizer displayQueues false
par WirelessNetworkTenHosts.visualizer.queueVisualizer queueFilter "\"**\""
par WirelessNetworkTenHosts.visualizer.queueVisualizer color "\"blue\""
par WirelessNetworkTenHosts.visualizer.queueVisualizer width 8
par WirelessNetworkTenHosts.visualizer.queueVisualizer height 24
par WirelessNetworkTenHosts.visualizer.queueVisualizer spacing 2
par WirelessNetworkTenHosts.visualizer.queueVisualizer placementHint "\"right\""
par WirelessNetworkTenHosts.visualizer.queueVisualizer placementPriority 0
par WirelessNetworkTenHosts.visualizer.queueVisualizer zIndex 10
par WirelessNetworkTenHosts.visualizer.gateScheduleVisualizer typename "\"inet.visualizer.canvas.common.GateScheduleCanvasVisualizer\""
par WirelessNetworkTenHosts.visualizer.gateScheduleVisualizer visualizationTargetModule "\"^.^\""
par WirelessNetworkTenHosts.visualizer.gateScheduleVisualizer visualizationSubjectModule "\"^.^\""
par WirelessNetworkTenHosts.visualizer.gateScheduleVisualizer tags "\"\""
par WirelessNetworkTenHosts.visualizer.gateScheduleVisualizer networkNodeVisualizerModule "\"^.networkNodeVisualizer\""
par WirelessNetworkTenHosts.visualizer.gateScheduleVisualizer displayGateSchedules false
par WirelessNetworkTenHosts.visualizer.gateScheduleVisualizer labelFormat "\"%i %D\""
par WirelessNetworkTenHosts.visualizer.gateScheduleVisualizer gateFilter "\"**\""
par WirelessNetworkTenHosts.visualizer.gateScheduleVisualizer width 100
par WirelessNetworkTenHosts.visualizer.gateScheduleVisualizer height 8
par WirelessNetworkTenHosts.visualizer.gateScheduleVisualizer spacing 2
par WirelessNetworkTenHosts.visualizer.gateScheduleVisualizer placementHint "\"right\""
par WirelessNetworkTenHosts.visualizer.gateScheduleVisualizer placementPriority 0
par WirelessNetworkTenHosts.visualizer.gateScheduleVisualizer displayDuration 0s
attr mutable ""
attr unit s
par WirelessNetworkTenHosts.visualizer.gateScheduleVisualizer currentTimePosition 50
par WirelessNetworkTenHosts.visualizer.gateScheduleVisualizer zIndex 10
par WirelessNetworkTenHosts.visualizer.radioVisualizer typename "\"inet.visualizer.canvas.physicallayer.RadioCanvasVisualizer\""
par WirelessNetworkTenHosts.visualizer.radioVisualizer visualizationTargetModule "\"^.^\""
par WirelessNetworkTenHosts.visualizer.radioVisualizer visualizationSubjectModule "\"^.^\""
par WirelessNetworkTenHosts.visualizer.radioVisualizer tags "\"\""
par WirelessNetworkTenHosts.visualizer.radioVisualizer networkNodeVisualizerModule "\"^.networkNodeVisualizer\""
par WirelessNetworkTenHosts.visualizer.radioVisualizer displayRadios false
par WirelessNetworkTenHosts.visualizer.radioVisualizer displayRadioMode true
par WirelessNetworkTenHosts.visualizer.radioVisualizer displayReceptionState true
par WirelessNetworkTenHosts.visualizer.radioVisualizer displayTransmissionState true
par WirelessNetworkTenHosts.visualizer.radioVisualizer displayAntennaLobes false
par WirelessNetworkTenHosts.visualizer.radioVisualizer radioFilter "\"**\""
attr mutable ""
par WirelessNetworkTenHosts.visualizer.radioVisualizer radioModeImages "\"block/process_vs block/timer_vs block/wrx_vs block/wtx_vs block/wrxtx_vs block/cogwheel_vs\""
par WirelessNetworkTenHosts.visualizer.radioVisualizer receptionStateImages "\"- - misc/receiving misc/receiving\""
par WirelessNetworkTenHosts.visualizer.radioVisualizer transmissionStateImages "\"- - misc/transmitting\""
par WirelessNetworkTenHosts.visualizer.radioVisualizer width 16
par WirelessNetworkTenHosts.visualizer.radioVisualizer height 16
par WirelessNetworkTenHosts.visualizer.radioVisualizer placementHint "\"bottomRight\""
par WirelessNetworkTenHosts.visualizer.radioVisualizer placementPriority 0
par WirelessNetworkTenHosts.visualizer.radioVisualizer antennaLobeNormalize false
par WirelessNetworkTenHosts.visualizer.radioVisualizer antennaLobeRelativeLabels false
par WirelessNetworkTenHosts.visualizer.radioVisualizer antennaLobePlaneGlobal true
par WirelessNetworkTenHosts.visualizer.radioVisualizer antennaLobePlane "\"view\""
attr enum view,xy,xz,yz
par WirelessNetworkTenHosts.visualizer.radioVisualizer antennaLobeMode "\"logarithmic\""
attr enum logarithmic,linear
par WirelessNetworkTenHosts.visualizer.radioVisualizer antennaLobeLogarithmicBase 10
par WirelessNetworkTenHosts.visualizer.radioVisualizer antennaLobeLogarithmicScale 100
par WirelessNetworkTenHosts.visualizer.radioVisualizer antennaLobeRadius 100
par WirelessNetworkTenHosts.visualizer.radioVisualizer antennaLobeStep 10deg
attr unit deg
par WirelessNetworkTenHosts.visualizer.radioVisualizer antennaLobeOpacity 0.25
par WirelessNetworkTenHosts.visualizer.radioVisualizer antennaLobeLineSmooth true
par WirelessNetworkTenHosts.visualizer.radioVisualizer antennaLobeLineColor "\"black\""
par WirelessNetworkTenHosts.visualizer.radioVisualizer antennaLobeLineStyle "\"solid\""
par WirelessNetworkTenHosts.visualizer.radioVisualizer antennaLobeLineWidth 1
par WirelessNetworkTenHosts.visualizer.radioVisualizer antennaLobeFillColor "\"white\""
par WirelessNetworkTenHosts.visualizer.radioVisualizer zIndex 10
par WirelessNetworkTenHosts.visualizer.physicalLinkVisualizer typename "\"inet.visualizer.canvas.physicallayer.PhysicalLinkCanvasVisualizer\""
par WirelessNetworkTenHosts.visualizer.physicalLinkVisualizer visualizationTargetModule "\"^.^\""
par WirelessNetworkTenHosts.visualizer.physicalLinkVisualizer visualizationSubjectModule "\"^.^\""
par WirelessNetworkTenHosts.visualizer.physicalLinkVisualizer tags "\"\""
par WirelessNetworkTenHosts.visualizer.physicalLinkVisualizer displayLinks false
par WirelessNetworkTenHosts.visualizer.physicalLinkVisualizer activityLevel "\"service\""
attr enum service,peer,protocol
par WirelessNetworkTenHosts.visualizer.physicalLinkVisualizer nodeFilter "\"*\""
attr mutable ""
par WirelessNetworkTenHosts.visualizer.physicalLinkVisualizer interfaceFilter "\"*\""
attr mutable ""
par WirelessNetworkTenHosts.visualizer.physicalLinkVisualizer packetFilter "(omnetpp::cValueHolder)holder: \"*\""
attr mutable ""
par WirelessNetworkTenHosts.visualizer.physicalLinkVisualizer lineColor "\"olive\""
par WirelessNetworkTenHosts.visualizer.physicalLinkVisualizer lineStyle "\"dotted\""
par WirelessNetworkTenHosts.visualizer.physicalLinkVisualizer lineWidth 3
par WirelessNetworkTenHosts.visualizer.physicalLinkVisualizer lineShift 16
par WirelessNetworkTenHosts.visualizer.physicalLinkVisualizer lineShiftMode "\"normal\""
par WirelessNetworkTenHosts.visualizer.physicalLinkVisualizer lineContactSpacing 3
par WirelessNetworkTenHosts.visualizer.physicalLinkVisualizer lineContactMode "\"rectangular\""
attr enum circular,rectangular
par WirelessNetworkTenHosts.visualizer.physicalLinkVisualizer labelFormat "\"%n\""
par WirelessNetworkTenHosts.visualizer.physicalLinkVisualizer labelFont "\"<default>, 8px\""
par WirelessNetworkTenHosts.visualizer.physicalLinkVisualizer labelColor "\"olive\""
par WirelessNetworkTenHosts.visualizer.physicalLinkVisualizer fadeOutMode "\"realTime\""
attr enum realTime,animationTime,simulationTime
par WirelessNetworkTenHosts.visualizer.physicalLinkVisualizer fadeOutTime 1s
attr unit s
par WirelessNetworkTenHosts.visualizer.physicalLinkVisualizer fadeOutAnimationSpeed 0
par WirelessNetworkTenHosts.visualizer.physicalLinkVisualizer holdAnimationTime 0s
attr unit s
par WirelessNetworkTenHosts.visualizer.physicalLinkVisualizer zIndex 1
par WirelessNetworkTenHosts.visualizer.interfaceTableVisualizer typename "\"inet.visualizer.canvas.linklayer.InterfaceTableCanvasVisualizer\""
par WirelessNetworkTenHosts.visualizer.interfaceTableVisualizer visualizationTargetModule "\"^.^\""
par WirelessNetworkTenHosts.visualizer.interfaceTableVisualizer visualizationSubjectModule "\"^.^\""
par WirelessNetworkTenHosts.visualizer.interfaceTableVisualizer tags "\"\""
par WirelessNetworkTenHosts.visualizer.interfaceTableVisualizer networkNodeVisualizerModule "\"^.networkNodeVisualizer\""
par WirelessNetworkTenHosts.visualizer.interfaceTableVisualizer displayInterfaceTables false
par WirelessNetworkTenHosts.visualizer.interfaceTableVisualizer displayWiredInterfacesAtConnections true
par WirelessNetworkTenHosts.visualizer.interfaceTableVisualizer displayBackground false
par WirelessNetworkTenHosts.visualizer.interfaceTableVisualizer nodeFilter "\"*\""
attr mutable ""
par WirelessNetworkTenHosts.visualizer.interfaceTableVisualizer interfaceFilter "\"not(lo*)\""
attr mutable ""
par WirelessNetworkTenHosts.visualizer.interfaceTableVisualizer format "\"%N %\\\\%a%/%l\""
attr mutable ""
par WirelessNetworkTenHosts.visualizer.interfaceTableVisualizer placementHint "\"top\""
par WirelessNetworkTenHosts.visualizer.interfaceTableVisualizer placementPriority 0
par WirelessNetworkTenHosts.visualizer.interfaceTableVisualizer font "\"<default>\""
par WirelessNetworkTenHosts.visualizer.interfaceTableVisualizer textColor "\"#005030\""
par WirelessNetworkTenHosts.visualizer.interfaceTableVisualizer backgroundColor "\"white\""
par WirelessNetworkTenHosts.visualizer.interfaceTableVisualizer opacity 1
par WirelessNetworkTenHosts.visualizer.interfaceTableVisualizer zIndex 10
par WirelessNetworkTenHosts.visualizer.dataLinkVisualizer typename "\"inet.visualizer.canvas.linklayer.DataLinkCanvasVisualizer\""
par WirelessNetworkTenHosts.visualizer.dataLinkVisualizer visualizationTargetModule "\"^.^\""
par WirelessNetworkTenHosts.visualizer.dataLinkVisualizer visualizationSubjectModule "\"^.^\""
par WirelessNetworkTenHosts.visualizer.dataLinkVisualizer tags "\"\""
par WirelessNetworkTenHosts.visualizer.dataLinkVisualizer displayLinks false
par WirelessNetworkTenHosts.visualizer.dataLinkVisualizer activityLevel "\"service\""
attr enum service,peer,protocol
par WirelessNetworkTenHosts.visualizer.dataLinkVisualizer nodeFilter "\"*\""
attr mutable ""
par WirelessNetworkTenHosts.visualizer.dataLinkVisualizer interfaceFilter "\"*\""
attr mutable ""
par WirelessNetworkTenHosts.visualizer.dataLinkVisualizer packetFilter "(omnetpp::cValueHolder)holder: \"*\""
attr mutable ""
par WirelessNetworkTenHosts.visualizer.dataLinkVisualizer lineColor "\"darkcyan\""
par WirelessNetworkTenHosts.visualizer.dataLinkVisualizer lineStyle "\"solid\""
par WirelessNetworkTenHosts.visualizer.dataLinkVisualizer lineWidth 3
par WirelessNetworkTenHosts.visualizer.dataLinkVisualizer lineShift 16
par WirelessNetworkTenHosts.visualizer.dataLinkVisualizer lineShiftMode "\"normal\""
par WirelessNetworkTenHosts.visualizer.dataLinkVisualizer lineContactSpacing 3
par WirelessNetworkTenHosts.visualizer.dataLinkVisualizer lineContactMode "\"rectangular\""
attr enum circular,rectangular
par WirelessNetworkTenHosts.visualizer.dataLinkVisualizer labelFormat "\"%n\""
par WirelessNetworkTenHosts.visualizer.dataLinkVisualizer labelFont "\"<default>, 8px\""
par WirelessNetworkTenHosts.visualizer.dataLinkVisualizer labelColor "\"darkcyan\""
par WirelessNetworkTenHosts.visualizer.dataLinkVisualizer fadeOutMode "\"realTime\""
attr enum realTime,animationTime,simulationTime
par WirelessNetworkTenHosts.visualizer.dataLinkVisualizer fadeOutTime 1s
attr unit s
par WirelessNetworkTenHosts.visualizer.dataLinkVisualizer fadeOutAnimationSpeed 0
par WirelessNetworkTenHosts.visualizer.dataLinkVisualizer holdAnimationTime 0s
attr unit s
par WirelessNetworkTenHosts.visualizer.dataLinkVisualizer zIndex 2
par WirelessNetworkTenHosts.visualizer.linkBreakVisualizer typename "\"inet.visualizer.canvas.linklayer.LinkBreakCanvasVisualizer\""
par WirelessNetworkTenHosts.visualizer.linkBreakVisualizer visualizationTargetModule "\"^.^\""
par WirelessNetworkTenHosts.visualizer.linkBreakVisualizer visualizationSubjectModule "\"^.^\""
par WirelessNetworkTenHosts.visualizer.linkBreakVisualizer tags "\"\""
par WirelessNetworkTenHosts.visualizer.linkBreakVisualizer displayLinkBreaks false
par WirelessNetworkTenHosts.visualizer.linkBreakVisualizer nodeFilter "\"*\""
attr mutable ""
par WirelessNetworkTenHosts.visualizer.linkBreakVisualizer interfaceFilter "\"*\""
attr mutable ""
par WirelessNetworkTenHosts.visualizer.linkBreakVisualizer packetFilter "(omnetpp::cValueHolder)holder: \"*\""
attr mutable ""
par WirelessNetworkTenHosts.visualizer.linkBreakVisualizer icon "\"status/stop\""
par WirelessNetworkTenHosts.visualizer.linkBreakVisualizer iconTintAmount 0
par WirelessNetworkTenHosts.visualizer.linkBreakVisualizer iconTintColor "\"\""
par WirelessNetworkTenHosts.visualizer.linkBreakVisualizer fadeOutMode "\"realTime\""
attr enum realTime,animationTime,simulationTime
par WirelessNetworkTenHosts.visualizer.linkBreakVisualizer fadeOutTime 1s
attr unit s
par WirelessNetworkTenHosts.visualizer.linkBreakVisualizer fadeOutAnimationSpeed 0
par WirelessNetworkTenHosts.visualizer.linkBreakVisualizer zIndex 2
par WirelessNetworkTenHosts.visualizer.ieee80211Visualizer typename "\"inet.visualizer.canvas.linklayer.Ieee80211CanvasVisualizer\""
par WirelessNetworkTenHosts.visualizer.ieee80211Visualizer visualizationTargetModule "\"^.^\""
par WirelessNetworkTenHosts.visualizer.ieee80211Visualizer visualizationSubjectModule "\"^.^\""
par WirelessNetworkTenHosts.visualizer.ieee80211Visualizer tags "\"\""
par WirelessNetworkTenHosts.visualizer.ieee80211Visualizer networkNodeVisualizerModule "\"^.networkNodeVisualizer\""
par WirelessNetworkTenHosts.visualizer.ieee80211Visualizer displayAssociations false
par WirelessNetworkTenHosts.visualizer.ieee80211Visualizer nodeFilter "\"*\""
attr mutable ""
par WirelessNetworkTenHosts.visualizer.ieee80211Visualizer interfaceFilter "\"*\""
attr mutable ""
par WirelessNetworkTenHosts.visualizer.ieee80211Visualizer minPower -85dBm
attr unit dBm
par WirelessNetworkTenHosts.visualizer.ieee80211Visualizer maxPower -50dBm
attr unit dBm
par WirelessNetworkTenHosts.visualizer.ieee80211Visualizer icons "\"misc/signal_power_0 misc/signal_power_1 misc/signal_power_2 misc/signal_power_3\""
par WirelessNetworkTenHosts.visualizer.ieee80211Visualizer iconColor "\"dark\""
par WirelessNetworkTenHosts.visualizer.ieee80211Visualizer labelFont "\"<default>\""
par WirelessNetworkTenHosts.visualizer.ieee80211Visualizer labelColor "\"black\""
par WirelessNetworkTenHosts.visualizer.ieee80211Visualizer placementHint "\"top\""
par WirelessNetworkTenHosts.visualizer.ieee80211Visualizer placementPriority 0
par WirelessNetworkTenHosts.visualizer.ieee80211Visualizer zIndex 2
par WirelessNetworkTenHosts.visualizer.networkRouteVisualizer typename "\"inet.visualizer.canvas.networklayer.NetworkRouteCanvasVisualizer\""
par WirelessNetworkTenHosts.visualizer.networkRouteVisualizer visualizationTargetModule "\"^.^\""
par WirelessNetworkTenHosts.visualizer.networkRouteVisualizer visualizationSubjectModule "\"^.^\""
par WirelessNetworkTenHosts.visualizer.networkRouteVisualizer tags "\"\""
par WirelessNetworkTenHosts.visualizer.networkRouteVisualizer displayRoutes false
par WirelessNetworkTenHosts.visualizer.networkRouteVisualizer startPathSignal "\"packetReceivedFromUpper\""
par WirelessNetworkTenHosts.visualizer.networkRouteVisualizer extendPathSignal "\"packetReceivedFromLower\""
par WirelessNetworkTenHosts.visualizer.networkRouteVisualizer endPathSignal "\"packetSentToUpper\""
par WirelessNetworkTenHosts.visualizer.networkRouteVisualizer nodeFilter "\"*\""
attr mutable ""
par WirelessNetworkTenHosts.visualizer.networkRouteVisualizer packetFilter "(omnetpp::cValueHolder)holder: \"*\""
attr mutable ""
par WirelessNetworkTenHosts.visualizer.networkRouteVisualizer lineColor "\"dark\""
par WirelessNetworkTenHosts.visualizer.networkRouteVisualizer lineStyle "\"solid\""
par WirelessNetworkTenHosts.visualizer.networkRouteVisualizer lineWidth 3
par WirelessNetworkTenHosts.visualizer.networkRouteVisualizer lineSmooth false
par WirelessNetworkTenHosts.visualizer.networkRouteVisualizer lineShift 16
par WirelessNetworkTenHosts.visualizer.networkRouteVisualizer lineShiftMode "\"normal\""
par WirelessNetworkTenHosts.visualizer.networkRouteVisualizer lineContactSpacing 3
par WirelessNetworkTenHosts.visualizer.networkRouteVisualizer lineContactMode "\"rectangular\""
attr enum circular,rectangular
par WirelessNetworkTenHosts.visualizer.networkRouteVisualizer labelFormat "\"%n\""
par WirelessNetworkTenHosts.visualizer.networkRouteVisualizer labelFont "\"<default>, 8px\""
par WirelessNetworkTenHosts.visualizer.networkRouteVisualizer labelColor "\"\""
par WirelessNetworkTenHosts.visualizer.networkRouteVisualizer fadeOutMode "\"realTime\""
attr enum realTime,animationTime,simulationTime
par WirelessNetworkTenHosts.visualizer.networkRouteVisualizer fadeOutTime 1s
attr unit s
par WirelessNetworkTenHosts.visualizer.networkRouteVisualizer fadeOutAnimationSpeed 0
par WirelessNetworkTenHosts.visualizer.networkRouteVisualizer zIndex 3
par WirelessNetworkTenHosts.visualizer.routingTableVisualizer typename "\"inet.visualizer.canvas.networklayer.RoutingTableCanvasVisualizer\""
par WirelessNetworkTenHosts.visualizer.routingTableVisualizer visualizationTargetModule "\"^.^\""
par WirelessNetworkTenHosts.visualizer.routingTableVisualizer visualizationSubjectModule "\"^.^\""
par WirelessNetworkTenHosts.visualizer.routingTableVisualizer tags "\"\""
par WirelessNetworkTenHosts.visualizer.routingTableVisualizer displayRoutingTables true
par WirelessNetworkTenHosts.visualizer.routingTableVisualizer displayRoutesIndividually true
par WirelessNetworkTenHosts.visualizer.routingTableVisualizer displayLabels true
par WirelessNetworkTenHosts.visualizer.routingTableVisualizer destinationFilter "\"*\""
attr mutable ""
par WirelessNetworkTenHosts.visualizer.routingTableVisualizer nodeFilter "\"*\""
attr mutable ""
par WirelessNetworkTenHosts.visualizer.routingTableVisualizer lineColor "\"black\""
par WirelessNetworkTenHosts.visualizer.routingTableVisualizer lineStyle "\"solid\""
par WirelessNetworkTenHosts.visualizer.routingTableVisualizer lineWidth 2
par WirelessNetworkTenHosts.visualizer.routingTableVisualizer lineShift 16
par WirelessNetworkTenHosts.visualizer.routingTableVisualizer lineShiftMode "\"normal\""
par WirelessNetworkTenHosts.visualizer.routingTableVisualizer lineContactSpacing 3
par WirelessNetworkTenHosts.visualizer.routingTableVisualizer lineContactMode "\"rectangular\""
attr enum circular,rectangular
par WirelessNetworkTenHosts.visualizer.routingTableVisualizer labelFormat "\"%d/%m -> %g (%n)\""
attr mutable ""
par WirelessNetworkTenHosts.visualizer.routingTableVisualizer labelFont "\"<default>, 8px\""
par WirelessNetworkTenHosts.visualizer.routingTableVisualizer labelColor "\"black\""
par WirelessNetworkTenHosts.visualizer.routingTableVisualizer zIndex 0
par WirelessNetworkTenHosts.visualizer.transportRouteVisualizer typename "\"inet.visualizer.canvas.transportlayer.TransportRouteCanvasVisualizer\""
par WirelessNetworkTenHosts.visualizer.transportRouteVisualizer visualizationTargetModule "\"^.^\""
par WirelessNetworkTenHosts.visualizer.transportRouteVisualizer visualizationSubjectModule "\"^.^\""
par WirelessNetworkTenHosts.visualizer.transportRouteVisualizer tags "\"\""
par WirelessNetworkTenHosts.visualizer.transportRouteVisualizer displayRoutes false
par WirelessNetworkTenHosts.visualizer.transportRouteVisualizer startPathSignal "\"packetReceivedFromUpper\""
par WirelessNetworkTenHosts.visualizer.transportRouteVisualizer extendPathSignal "\"packetReceivedFromLower\""
par WirelessNetworkTenHosts.visualizer.transportRouteVisualizer endPathSignal "\"packetSentToUpper\""
par WirelessNetworkTenHosts.visualizer.transportRouteVisualizer nodeFilter "\"*\""
attr mutable ""
par WirelessNetworkTenHosts.visualizer.transportRouteVisualizer packetFilter "(omnetpp::cValueHolder)holder: \"*\""
attr mutable ""
par WirelessNetworkTenHosts.visualizer.transportRouteVisualizer lineColor "\"dark\""
par WirelessNetworkTenHosts.visualizer.transportRouteVisualizer lineStyle "\"solid\""
par WirelessNetworkTenHosts.visualizer.transportRouteVisualizer lineWidth 3
par WirelessNetworkTenHosts.visualizer.transportRouteVisualizer lineSmooth false
par WirelessNetworkTenHosts.visualizer.transportRouteVisualizer lineShift 16
par WirelessNetworkTenHosts.visualizer.transportRouteVisualizer lineShiftMode "\"normal\""
par WirelessNetworkTenHosts.visualizer.transportRouteVisualizer lineContactSpacing 3
par WirelessNetworkTenHosts.visualizer.transportRouteVisualizer lineContactMode "\"rectangular\""
attr enum circular,rectangular
par WirelessNetworkTenHosts.visualizer.transportRouteVisualizer labelFormat "\"%n\""
par WirelessNetworkTenHosts.visualizer.transportRouteVisualizer labelFont "\"<default>, 8px\""
par WirelessNetworkTenHosts.visualizer.transportRouteVisualizer labelColor "\"\""
par WirelessNetworkTenHosts.visualizer.transportRouteVisualizer fadeOutMode "\"realTime\""
attr enum realTime,animationTime,simulationTime
par WirelessNetworkTenHosts.visualizer.transportRouteVisualizer fadeOutTime 1s
attr unit s
par WirelessNetworkTenHosts.visualizer.transportRouteVisualizer fadeOutAnimationSpeed 0
par WirelessNetworkTenHosts.visualizer.transportRouteVisualizer zIndex 4
par WirelessNetworkTenHosts.visualizer.transportConnectionVisualizer typename "\"inet.visualizer.canvas.transportlayer.TransportConnectionCanvasVisualizer\""
par WirelessNetworkTenHosts.visualizer.transportConnectionVisualizer visualizationTargetModule "\"^.^\""
par WirelessNetworkTenHosts.visualizer.transportConnectionVisualizer visualizationSubjectModule "\"^.^\""
par WirelessNetworkTenHosts.visualizer.transportConnectionVisualizer tags "\"\""
par WirelessNetworkTenHosts.visualizer.transportConnectionVisualizer networkNodeVisualizerModule "\"^.networkNodeVisualizer\""
par WirelessNetworkTenHosts.visualizer.transportConnectionVisualizer displayTransportConnections false
par WirelessNetworkTenHosts.visualizer.transportConnectionVisualizer sourceNodeFilter "\"*\""
attr mutable ""
par WirelessNetworkTenHosts.visualizer.transportConnectionVisualizer sourcePortFilter "\"*\""
attr mutable ""
par WirelessNetworkTenHosts.visualizer.transportConnectionVisualizer destinationNodeFilter "\"*\""
attr mutable ""
par WirelessNetworkTenHosts.visualizer.transportConnectionVisualizer destinationPortFilter "\"*\""
attr mutable ""
par WirelessNetworkTenHosts.visualizer.transportConnectionVisualizer icon "\"misc/marker_s\""
par WirelessNetworkTenHosts.visualizer.transportConnectionVisualizer iconColor "\"dark\""
par WirelessNetworkTenHosts.visualizer.transportConnectionVisualizer labelFont "\"<default>\""
par WirelessNetworkTenHosts.visualizer.transportConnectionVisualizer labelColor "\"black\""
par WirelessNetworkTenHosts.visualizer.transportConnectionVisualizer placementHint "\"top\""
par WirelessNetworkTenHosts.visualizer.transportConnectionVisualizer placementPriority 0
par WirelessNetworkTenHosts.visualizer.transportConnectionVisualizer zIndex 4
par WirelessNetworkTenHosts.visualizer.failureProtectionConfigurationVisualizer typename "\"inet.visualizer.canvas.configurator.FailureProtectionConfigurationCanvasVisualizer\""
par WirelessNetworkTenHosts.visualizer.failureProtectionConfigurationVisualizer visualizationTargetModule "\"^.^\""
par WirelessNetworkTenHosts.visualizer.failureProtectionConfigurationVisualizer visualizationSubjectModule "\"^.^\""
par WirelessNetworkTenHosts.visualizer.failureProtectionConfigurationVisualizer tags "\"\""
par WirelessNetworkTenHosts.visualizer.failureProtectionConfigurationVisualizer displayTrees false
par WirelessNetworkTenHosts.visualizer.failureProtectionConfigurationVisualizer lineColor "\"dark\""
par WirelessNetworkTenHosts.visualizer.failureProtectionConfigurationVisualizer lineStyle "\"solid\""
par WirelessNetworkTenHosts.visualizer.failureProtectionConfigurationVisualizer lineWidth 3
par WirelessNetworkTenHosts.visualizer.failureProtectionConfigurationVisualizer lineSmooth false
par WirelessNetworkTenHosts.visualizer.failureProtectionConfigurationVisualizer lineShift 16
par WirelessNetworkTenHosts.visualizer.failureProtectionConfigurationVisualizer lineShiftMode "\"normal\""
par WirelessNetworkTenHosts.visualizer.failureProtectionConfigurationVisualizer lineContactSpacing 3
par WirelessNetworkTenHosts.visualizer.failureProtectionConfigurationVisualizer lineContactMode "\"rectangular\""
attr enum circular,rectangular
par WirelessNetworkTenHosts.visualizer.failureProtectionConfigurationVisualizer failureProtectionConfiguratorModule "\"failureProtectionConfigurator\""
par WirelessNetworkTenHosts.visualizer.failureProtectionConfigurationVisualizer streamFilter "\"*\""
par WirelessNetworkTenHosts.visualizer.failureProtectionConfigurationVisualizer zIndex 3
par WirelessNetworkTenHosts.visualizer.streamRedundancyConfigurationVisualizer typename "\"inet.visualizer.canvas.configurator.StreamRedundancyConfigurationCanvasVisualizer\""
par WirelessNetworkTenHosts.visualizer.streamRedundancyConfigurationVisualizer visualizationTargetModule "\"^.^\""
par WirelessNetworkTenHosts.visualizer.streamRedundancyConfigurationVisualizer visualizationSubjectModule "\"^.^\""
par WirelessNetworkTenHosts.visualizer.streamRedundancyConfigurationVisualizer tags "\"\""
par WirelessNetworkTenHosts.visualizer.streamRedundancyConfigurationVisualizer displayTrees false
par WirelessNetworkTenHosts.visualizer.streamRedundancyConfigurationVisualizer lineColor "\"dark\""
par WirelessNetworkTenHosts.visualizer.streamRedundancyConfigurationVisualizer lineStyle "\"solid\""
par WirelessNetworkTenHosts.visualizer.streamRedundancyConfigurationVisualizer lineWidth 3
par WirelessNetworkTenHosts.visualizer.streamRedundancyConfigurationVisualizer lineSmooth false
par WirelessNetworkTenHosts.visualizer.streamRedundancyConfigurationVisualizer lineShift 16
par WirelessNetworkTenHosts.visualizer.streamRedundancyConfigurationVisualizer lineShiftMode "\"normal\""
par WirelessNetworkTenHosts.visualizer.streamRedundancyConfigurationVisualizer lineContactSpacing 3
par WirelessNetworkTenHosts.visualizer.streamRedundancyConfigurationVisualizer lineContactMode "\"rectangular\""
attr enum circular,rectangular
par WirelessNetworkTenHosts.visualizer.streamRedundancyConfigurationVisualizer streamRedundancyConfiguratorModule "\"streamRedundancyConfigurator\""
par WirelessNetworkTenHosts.visualizer.streamRedundancyConfigurationVisualizer streamFilter "\"*\""
par WirelessNetworkTenHosts.visualizer.streamRedundancyConfigurationVisualizer zIndex 3
par WirelessNetworkTenHosts.visualizer typename "\"inet.visualizer.canvas.integrated.IntegratedCanvasVisualizer\""
par WirelessNetworkTenHosts.configurator typename "\"inet.networklayer.configurator.ipv4.Ipv4NetworkConfigurator\""
par WirelessNetworkTenHosts.configurator minLinkWeight 0.001
par WirelessNetworkTenHosts.configurator configureIsolatedNetworksSeparatly false
par WirelessNetworkTenHosts.configurator config "<config>...</config> at content:1"
par WirelessNetworkTenHosts.configurator assignAddresses true
par WirelessNetworkTenHosts.configurator assignUniqueAddresses true
par WirelessNetworkTenHosts.configurator assignDisjunctSubnetAddresses true
par WirelessNetworkTenHosts.configurator addStaticRoutes true
par WirelessNetworkTenHosts.configurator addDefaultRoutes true
par WirelessNetworkTenHosts.configurator addSubnetRoutes true
par WirelessNetworkTenHosts.configurator addDirectRoutes true
par WirelessNetworkTenHosts.configurator optimizeRoutes true
par WirelessNetworkTenHosts.configurator dumpTopology true
par WirelessNetworkTenHosts.configurator dumpLinks true
par WirelessNetworkTenHosts.configurator dumpAddresses true
par WirelessNetworkTenHosts.configurator dumpRoutes true
par WirelessNetworkTenHosts.configurator dumpConfig "\"\""
par WirelessNetworkTenHosts.radioMedium.propagation typename "\"inet.physicallayer.wireless.common.propagation.ConstantSpeedPropagation\""
par WirelessNetworkTenHosts.radioMedium.propagation propagationSpeed 2.99792e+08mps
attr unit mps
par WirelessNetworkTenHosts.radioMedium.propagation ignoreMovementDuringTransmission true
par WirelessNetworkTenHosts.radioMedium.propagation ignoreMovementDuringPropagation true
par WirelessNetworkTenHosts.radioMedium.propagation ignoreMovementDuringReception true
scalar WirelessNetworkTenHosts.radioMedium.propagation "Arrival computation count" 27
par WirelessNetworkTenHosts.radioMedium.analogModel typename "\"inet.physicallayer.wireless.unitdisk.UnitDiskAnalogModel\""
par WirelessNetworkTenHosts.radioMedium.pathLoss typename "\"inet.physicallayer.wireless.common.pathloss.FreeSpacePathLoss\""
par WirelessNetworkTenHosts.radioMedium.pathLoss alpha 2
par WirelessNetworkTenHosts.radioMedium.pathLoss systemLoss 0dB
attr unit dB
par WirelessNetworkTenHosts.radioMedium.mediumLimitCache typename "\"inet.physicallayer.wireless.common.medium.MediumLimitCache\""
par WirelessNetworkTenHosts.radioMedium.mediumLimitCache centerFrequency "nan Hz"
attr unit Hz
par WirelessNetworkTenHosts.radioMedium.mediumLimitCache maxSpeed "nan mps"
attr unit mps
par WirelessNetworkTenHosts.radioMedium.mediumLimitCache maxTransmissionPower "nan W"
attr unit W
par WirelessNetworkTenHosts.radioMedium.mediumLimitCache minInterferencePower "nan dBm"
attr unit dBm
par WirelessNetworkTenHosts.radioMedium.mediumLimitCache minReceptionPower "nan dBm"
attr unit dBm
par WirelessNetworkTenHosts.radioMedium.mediumLimitCache maxAntennaGain 0dB
attr unit dB
par WirelessNetworkTenHosts.radioMedium.mediumLimitCache minInterferenceTime 1e-12s
attr unit s
par WirelessNetworkTenHosts.radioMedium.mediumLimitCache maxTransmissionDuration 0.01s
attr unit s
par WirelessNetworkTenHosts.radioMedium.mediumLimitCache maxCommunicationRange "nan m"
attr unit m
par WirelessNetworkTenHosts.radioMedium.mediumLimitCache maxInterferenceRange "nan m"
attr unit m
par WirelessNetworkTenHosts.radioMedium.communicationCache typename "\"inet.physicallayer.wireless.common.communicationcache.VectorCommunicationCache\""
par WirelessNetworkTenHosts.radioMedium typename "\"inet.physicallayer.wireless.unitdisk.UnitDiskRadioMedium\""
par WirelessNetworkTenHosts.radioMedium physicalEnvironmentModule "\"physicalEnvironment\""
par WirelessNetworkTenHosts.radioMedium signalAnalogRepresentation "\"unitDisk\""
attr enum unitDisk,scalar,dimensional
par WirelessNetworkTenHosts.radioMedium rangeFilter "\"\""
par WirelessNetworkTenHosts.radioMedium radioModeFilter false
par WirelessNetworkTenHosts.radioMedium listeningFilter false
par WirelessNetworkTenHosts.radioMedium macAddressFilter false
par WirelessNetworkTenHosts.radioMedium recordTransmissionLog false
par WirelessNetworkTenHosts.radioMedium recordReceptionLog false
scalar WirelessNetworkTenHosts.radioMedium "transmission count" 3
scalar WirelessNetworkTenHosts.radioMedium "signal send count" 27
scalar WirelessNetworkTenHosts.radioMedium "reception computation count" 27
scalar WirelessNetworkTenHosts.radioMedium "interference computation count" 104
scalar WirelessNetworkTenHosts.radioMedium "reception decision computation count" 27
scalar WirelessNetworkTenHosts.radioMedium "listening decision computation count" 50
scalar WirelessNetworkTenHosts.radioMedium "reception cache hit" 85.714285714286
attr unit %
scalar WirelessNetworkTenHosts.radioMedium "interference cache hit" 66.666666666667
attr unit %
scalar WirelessNetworkTenHosts.radioMedium "noise cache hit" 0
attr unit %
scalar WirelessNetworkTenHosts.radioMedium "snir cache hit" 50
attr unit %
scalar WirelessNetworkTenHosts.radioMedium "reception decision cache hit" 50
attr unit %
scalar WirelessNetworkTenHosts.radioMedium "reception result cache hit" 0
attr unit %
par WirelessNetworkTenHosts.host0.radioIn[0].channel typename "\"ned.IdealChannel\""
par WirelessNetworkTenHosts.host0.mobility typename "\"inet.mobility.static.StationaryMobility\""
par WirelessNetworkTenHosts.host0.mobility subjectModule "\"^\""
par WirelessNetworkTenHosts.host0.mobility coordinateSystemModule "\"\""
par WirelessNetworkTenHosts.host0.mobility displayStringTextFormat "\"p: %p\\nv: %v\""
attr mutable ""
par WirelessNetworkTenHosts.host0.mobility updateDisplayString true
par WirelessNetworkTenHosts.host0.mobility constraintAreaMinX "-inf m"
attr unit m
par WirelessNetworkTenHosts.host0.mobility constraintAreaMinY "-inf m"
attr unit m
par WirelessNetworkTenHosts.host0.mobility constraintAreaMinZ "-inf m"
attr unit m
par WirelessNetworkTenHosts.host0.mobility constraintAreaMaxX "inf m"
attr unit m
par WirelessNetworkTenHosts.host0.mobility constraintAreaMaxY "inf m"
attr unit m
par WirelessNetworkTenHosts.host0.mobility constraintAreaMaxZ "inf m"
attr unit m
par WirelessNetworkTenHosts.host0.mobility initialX "nan m"
attr unit m
par WirelessNetworkTenHosts.host0.mobility initialY "nan m"
attr unit m
par WirelessNetworkTenHosts.host0.mobility initialZ 0m
attr unit m
par WirelessNetworkTenHosts.host0.mobility initialLatitude "nan deg"
attr unit deg
par WirelessNetworkTenHosts.host0.mobility initialLongitude "nan deg"
attr unit deg
par WirelessNetworkTenHosts.host0.mobility initialAltitude 0m
attr unit m
par WirelessNetworkTenHosts.host0.mobility initialHeading 0deg
attr unit deg
par WirelessNetworkTenHosts.host0.mobility initialElevation 0deg
attr unit deg
par WirelessNetworkTenHosts.host0.mobility initialBank 0deg
attr unit deg
par WirelessNetworkTenHosts.host0.mobility initFromDisplayString true
par WirelessNetworkTenHosts.host0.mobility updateFromDisplayString true
par WirelessNetworkTenHosts.host0.interfaceTable typename "\"inet.networklayer.common.InterfaceTable\""
par WirelessNetworkTenHosts.host0.interfaceTable displayAddresses false
par WirelessNetworkTenHosts.host0.cb typename "\"inet.common.MessageDispatcher\""
par WirelessNetworkTenHosts.host0.cb displayStringTextFormat "\"processed %p pk (%l)\""
par WirelessNetworkTenHosts.host0.cb forwardServiceRegistration true
par WirelessNetworkTenHosts.host0.cb forwardProtocolRegistration true
par WirelessNetworkTenHosts.host0.bl typename "\"inet.common.MessageDispatcher\""
par WirelessNetworkTenHosts.host0.bl displayStringTextFormat "\"processed %p pk (%l)\""
par WirelessNetworkTenHosts.host0.bl forwardServiceRegistration true
par WirelessNetworkTenHosts.host0.bl forwardProtocolRegistration true
par WirelessNetworkTenHosts.host0.li typename "\"inet.common.MessageDispatcher\""
par WirelessNetworkTenHosts.host0.li displayStringTextFormat "\"processed %p pk (%l)\""
par WirelessNetworkTenHosts.host0.li forwardServiceRegistration true
par WirelessNetworkTenHosts.host0.li forwardProtocolRegistration true
par WirelessNetworkTenHosts.host0.lo[0].upperLayerIn.channel typename "\"ned.IdealChannel\""
par WirelessNetworkTenHosts.host0.lo[0].lo.upperLayerOut.channel typename "\"ned.IdealChannel\""
par WirelessNetworkTenHosts.host0.lo[0].lo typename "\"inet.linklayer.loopback.Loopback\""
par WirelessNetworkTenHosts.host0.lo[0].lo interfaceTableModule "\"WirelessNetworkTenHosts.host0.interfaceTable\""
par WirelessNetworkTenHosts.host0.lo[0].lo mtu 4470B
attr unit B
scalar WirelessNetworkTenHosts.host0.lo[0].lo rcvdPkFromHl:count 0
attr interpolationmode none
attr recordingmode count
attr source packetReceivedFromUpper
attr title "packets received from higher layer, count"
scalar WirelessNetworkTenHosts.host0.lo[0].lo rcvdPkFromHl:sum(packetBytes) 0
attr interpolationmode none
attr recordingmode sum(packetBytes)
attr source packetReceivedFromUpper
attr title "packets received from higher layer, sum(packetBytes)"
scalar WirelessNetworkTenHosts.host0.lo[0].lo passedUpPk:count 0
attr interpolationmode none
attr recordingmode count
attr source packetSentToUpper
attr title "packets passed to higher layer, count"
scalar WirelessNetworkTenHosts.host0.lo[0].lo passedUpPk:sum(packetBytes) 0
attr interpolationmode none
attr recordingmode sum(packetBytes)
attr source packetSentToUpper
attr title "packets passed to higher layer, sum(packetBytes)"
par WirelessNetworkTenHosts.host0.lo[0] typename "\"inet.linklayer.loopback.LoopbackInterface\""
par WirelessNetworkTenHosts.host0.lo[0] displayStringTextFormat "\"%a (%i)\\n%m\""
par WirelessNetworkTenHosts.host0.lo[0] recordPcap false
par WirelessNetworkTenHosts.host0.lo[0] numPcapRecorders 0
par WirelessNetworkTenHosts.host0.lo[0] interfaceTableModule "\"WirelessNetworkTenHosts.host0.interfaceTable\""
scalar WirelessNetworkTenHosts.host0.lo[0] packetDropInterfaceDown:count 0
attr interpolationmode none
attr recordingmode count
attr source packetDropReasonIsInterfaceDown(packetDropped)
attr title "packet drops: interface down, count"
scalar WirelessNetworkTenHosts.host0.lo[0] packetDropInterfaceDown:sum(packetBytes) 0
attr interpolationmode none
attr recordingmode sum(packetBytes)
attr source packetDropReasonIsInterfaceDown(packetDropped)
attr title "packet drops: interface down, sum(packetBytes)"
scalar WirelessNetworkTenHosts.host0.lo[0] packetDropNoCarrier:count 0
attr interpolationmode none
attr recordingmode count
attr source packetDropReasonIsNoCarrier(packetDropped)
attr title "packet drops: no carrier, count"
scalar WirelessNetworkTenHosts.host0.lo[0] packetDropNoCarrier:sum(packetBytes) 0
attr interpolationmode none
attr recordingmode sum(packetBytes)
attr source packetDropReasonIsNoCarrier(packetDropped)
attr title "packet drops: no carrier, sum(packetBytes)"
par WirelessNetworkTenHosts.host0.wlan[0].upperLayerIn.channel typename "\"ned.IdealChannel\""
par WirelessNetworkTenHosts.host0.wlan[0].radioIn.channel typename "\"ned.IdealChannel\""
par WirelessNetworkTenHosts.host0.wlan[0].mac.upperLayerOut.channel typename "\"ned.IdealChannel\""
par WirelessNetworkTenHosts.host0.wlan[0].queue typename "\"inet.queueing.queue.DropTailQueue\""
par WirelessNetworkTenHosts.host0.wlan[0].queue displayStringTextFormat "\"contains %p pk (%l) pushed %u\\npulled %o removed %r dropped %d\""
par WirelessNetworkTenHosts.host0.wlan[0].queue packetCapacity 100
par WirelessNetworkTenHosts.host0.wlan[0].queue dataCapacity -1b
attr unit b
par WirelessNetworkTenHosts.host0.wlan[0].queue dropperClass "\"inet::queueing::PacketAtCollectionEndDropper\""
par WirelessNetworkTenHosts.host0.wlan[0].queue comparatorClass "\"\""
par WirelessNetworkTenHosts.host0.wlan[0].queue bufferModule "\"\""
scalar WirelessNetworkTenHosts.host0.wlan[0].queue queueLength:last 0
attr autoWarmupFilter false
attr interpolationmode sample-hold
attr recordingmode last
attr source "warmup(atomic(constant0(packetPushEnded) + count(packetPushStarted) - count(packetPulled) - count(packetRemoved) - count(packetDropped)))"
attr title "queue length, last"
attr unit pk
scalar WirelessNetworkTenHosts.host0.wlan[0].queue queueLength:max 0
attr autoWarmupFilter false
attr interpolationmode sample-hold
attr recordingmode max
attr source "warmup(atomic(constant0(packetPushEnded) + count(packetPushStarted) - count(packetPulled) - count(packetRemoved) - count(packetDropped)))"
attr title "queue length, max"
attr unit pk
scalar WirelessNetworkTenHosts.host0.wlan[0].queue queueLength:timeavg 0
attr autoWarmupFilter false
attr interpolationmode sample-hold
attr recordingmode timeavg
attr source "warmup(atomic(constant0(packetPushEnded) + count(packetPushStarted) - count(packetPulled) - count(packetRemoved) - count(packetDropped)))"
attr title "queue length, timeavg"
attr unit pk
scalar WirelessNetworkTenHosts.host0.wlan[0].queue queueBitLength:last 0
attr autoWarmupFilter false
attr interpolationmode sample-hold
attr recordingmode last
attr source "warmup(atomic(constant0(packetPushEnded) + sum(packetLength(packetPushStarted)) - sum(packetLength(packetPulled)) - sum(packetLength(packetRemoved)) - sum(packetLength(packetDropped))))"
attr title "queue bit length, last"
attr unit b
scalar WirelessNetworkTenHosts.host0.wlan[0].queue queueBitLength:max 0
attr autoWarmupFilter false
attr interpolationmode sample-hold
attr recordingmode max
attr source "warmup(atomic(constant0(packetPushEnded) + sum(packetLength(packetPushStarted)) - sum(packetLength(packetPulled)) - sum(packetLength(packetRemoved)) - sum(packetLength(packetDropped))))"
attr title "queue bit length, max"
attr unit b
scalar WirelessNetworkTenHosts.host0.wlan[0].queue queueBitLength:timeavg 0
attr autoWarmupFilter false
attr interpolationmode sample-hold
attr recordingmode timeavg
attr source "warmup(atomic(constant0(packetPushEnded) + sum(packetLength(packetPushStarted)) - sum(packetLength(packetPulled)) - sum(packetLength(packetRemoved)) - sum(packetLength(packetDropped))))"
attr title "queue bit length, timeavg"
attr unit b
statistic WirelessNetworkTenHosts.host0.wlan[0].queue queueingTime:histogram
field count 1
field mean 0
field stddev nan
field min 0
field max 0
field sum 0
field sqrsum 0
attr interpolationmode none
attr recordingmode histogram
attr source queueingTime(packetPulled)
attr title "queueing times"
attr unit s
bin	-inf	0
bin	-0.5	0
bin	-0.48	0
bin	-0.46	0
bin	-0.44	0
bin	-0.42	0
bin	-0.4	0
bin	-0.38	0
bin	-0.36	0
bin	-0.34	0
bin	-0.32	0
bin	-0.3	0
bin	-0.28	0
bin	-0.26	0
bin	-0.24	0
bin	-0.22	0
bin	-0.2	0
bin	-0.18	0
bin	-0.16	0
bin	-0.14	0
bin	-0.12	0
bin	-0.1	0
bin	-0.08	0
bin	-0.06	0
bin	-0.04	0
bin	-0.02	0
bin	0	1
bin	0.02	0
bin	0.04	0
bin	0.06	0
bin	0.08	0
bin	0.1	0
bin	0.12	0
bin	0.14	0
bin	0.16	0
bin	0.18	0
bin	0.2	0
bin	0.22	0
bin	0.24	0
bin	0.26	0
bin	0.28	0
bin	0.3	0
bin	0.32	0
bin	0.34	0
bin	0.36	0
bin	0.38	0
bin	0.4	0
bin	0.42	0
bin	0.44	0
bin	0.46	0
bin	0.48	0
bin	0.5	0
scalar WirelessNetworkTenHosts.host0.wlan[0].queue outgoingPackets:count 1
attr recordingmode count
attr source packetPulled
attr title "outgoing packets, count"
attr unit pk
scalar WirelessNetworkTenHosts.host0.wlan[0].queue outgoingPacketLengths:sum 568
attr interpolationmode none
attr recordingmode sum
attr source packetLength(packetPulled)
attr title "outgoing packet lengths, sum"
attr unit b
statistic WirelessNetworkTenHosts.host0.wlan[0].queue outgoingPacketLengths:histogram
field count 1
field mean 568
field stddev nan
field min 568
field max 568
field sum 568
field sqrsum 322624
attr interpolationmode none
attr recordingmode histogram
attr source packetLength(packetPulled)
attr title "outgoing packet lengths"
attr unit b
bin	-inf	0
bin	567	0
bin	568	1
bin	569	0
statistic WirelessNetworkTenHosts.host0.wlan[0].queue flowQueueingTime:histogram
field count 0
field mean nan
field stddev nan
field min nan
field max nan
field sum 0
field sqrsum 0
attr interpolationmode none
attr recordingmode histogram
attr source queueingTime(demuxFlow(packetPulled))
attr title "flow queueing times"
attr unit s
bin	-inf	0
bin	0	0
bin	1	0
scalar WirelessNetworkTenHosts.host0.wlan[0].queue incomingPackets:count 1
attr recordingmode count
attr source packetPushStarted
attr title "incoming packets, count"
attr unit pk
scalar WirelessNetworkTenHosts.host0.wlan[0].queue incomingPacketLengths:sum 568
attr interpolationmode none
attr recordingmode sum
attr source packetLength(packetPushStarted)
attr title "incoming packet lengths, sum"
attr unit b
statistic WirelessNetworkTenHosts.host0.wlan[0].queue incomingPacketLengths:histogram
field count 1
field mean 568
field stddev nan
field min 568
field max 568
field sum 568
field sqrsum 322624
attr interpolationmode none
attr recordingmode histogram
attr source packetLength(packetPushStarted)
attr title "incoming packet lengths"
attr unit b
bin	-inf	0
bin	567	0
bin	568	1
bin	569	0
scalar WirelessNetworkTenHosts.host0.wlan[0].queue droppedPacketsQueueOverflow:count 0
attr interpolationmode none
attr recordingmode count
attr source packetDropReasonIsQueueOverflow(packetDropped)
attr title "dropped packets: queue overflow, count"
attr unit pk
scalar WirelessNetworkTenHosts.host0.wlan[0].queue droppedPacketLengthsQueueOverflow:sum 0
attr interpolationmode none
attr recordingmode sum
attr source packetLength(packetDropReasonIsQueueOverflow(packetDropped))
attr title "dropped packet lengths: queue overflow, sum"
attr unit b
par WirelessNetworkTenHosts.host0.wlan[0].mac typename "\"inet.linklayer.acking.AckingMac\""
par WirelessNetworkTenHosts.host0.wlan[0].mac interfaceTableModule "\"WirelessNetworkTenHosts.host0.interfaceTable\""
par WirelessNetworkTenHosts.host0.wlan[0].mac address "\"auto\""
attr mutable ""
par WirelessNetworkTenHosts.host0.wlan[0].mac bitrate 1e+06bps
attr unit bps
par WirelessNetworkTenHosts.host0.wlan[0].mac mtu 4470B
attr unit B
par WirelessNetworkTenHosts.host0.wlan[0].mac headerLength 23B
attr unit B
par WirelessNetworkTenHosts.host0.wlan[0].mac promiscuous false
par WirelessNetworkTenHosts.host0.wlan[0].mac fullDuplex false
par WirelessNetworkTenHosts.host0.wlan[0].mac useAck false
par WirelessNetworkTenHosts.host0.wlan[0].mac ackTimeout 0.1s
attr unit s
scalar WirelessNetworkTenHosts.host0.wlan[0].mac rcvdPkFromLl:count 2
attr interpolationmode none
attr recordingmode count
attr source packetReceivedFromLower
attr title "packets received from lower layer, count"
scalar WirelessNetworkTenHosts.host0.wlan[0].mac rcvdPkFromLl:sum(packetBytes) 186
attr interpolationmode none
attr recordingmode sum(packetBytes)
attr source packetReceivedFromLower
attr title "packets received from lower layer, sum(packetBytes)"
scalar WirelessNetworkTenHosts.host0.wlan[0].mac sentDownPk:count 1
attr interpolationmode none
attr recordingmode count
attr source packetSentToLower
attr title "packets sent to lower layer, count"
scalar WirelessNetworkTenHosts.host0.wlan[0].mac sentDownPk:sum(packetBytes) 94
attr interpolationmode none
attr recordingmode sum(packetBytes)
attr source packetSentToLower
attr title "packets sent to lower layer, sum(packetBytes)"
scalar WirelessNetworkTenHosts.host0.wlan[0].mac rcvdPkFromHl:count 1
attr interpolationmode none
attr recordingmode count
attr source packetReceivedFromUpper
attr title "packets received from higher layer, count"
scalar WirelessNetworkTenHosts.host0.wlan[0].mac rcvdPkFromHl:sum(packetBytes) 71
attr interpolationmode none
attr recordingmode sum(packetBytes)
attr source packetReceivedFromUpper
attr title "packets received from higher layer, sum(packetBytes)"
scalar WirelessNetworkTenHosts.host0.wlan[0].mac passedUpPk:count 1
attr interpolationmode none
attr recordingmode count
attr source packetSentToUpper
attr title "packets passed to higher layer, count"
scalar WirelessNetworkTenHosts.host0.wlan[0].mac passedUpPk:sum(packetBytes) 70
attr interpolationmode none
attr recordingmode sum(packetBytes)
attr source packetSentToUpper
attr title "packets passed to higher layer, sum(packetBytes)"
scalar WirelessNetworkTenHosts.host0.wlan[0].mac packetDropIncorrectlyReceived:count 0
attr interpolationmode none
attr recordingmode count
attr source packetDropReasonIsIncorrectlyReceived(packetDropped)
attr title "packet drop: incorrectly received, count"
scalar WirelessNetworkTenHosts.host0.wlan[0].mac packetDropIncorrectlyReceived:sum(packetBytes) 0
attr interpolationmode none
attr recordingmode sum(packetBytes)
attr source packetDropReasonIsIncorrectlyReceived(packetDropped)
attr title "packet drop: incorrectly received, sum(packetBytes)"
scalar WirelessNetworkTenHosts.host0.wlan[0].mac packetDropInterfaceDown:count 0
attr interpolationmode none
attr recordingmode count
attr source packetDropReasonIsInterfaceDown(packetDropped)
attr title "packet drop: interface down, count"
scalar WirelessNetworkTenHosts.host0.wlan[0].mac packetDropInterfaceDown:sum(packetBytes) 0
attr interpolationmode none
attr recordingmode sum(packetBytes)
attr source packetDropReasonIsInterfaceDown(packetDropped)
attr title "packet drop: interface down, sum(packetBytes)"
scalar WirelessNetworkTenHosts.host0.wlan[0].mac packetDropNotAddressedToUs:count 1
attr interpolationmode none
attr recordingmode count
attr source packetDropReasonIsNotAddressedToUs(packetDropped)
attr title "packet drop: not addressed to us, count"
scalar WirelessNetworkTenHosts.host0.wlan[0].mac packetDropNotAddressedToUs:sum(packetBytes) 93
attr interpolationmode none
attr recordingmode sum(packetBytes)
attr source packetDropReasonIsNotAddressedToUs(packetDropped)
attr title "packet drop: not addressed to us, sum(packetBytes)"
scalar WirelessNetworkTenHosts.host0.wlan[0].mac linkBroken:count 0
attr interpolationmode none
attr recordingmode count
attr source linkBroken
attr title "link break, count"
par WirelessNetworkTenHosts.host0.wlan[0].radio.antenna typename "\"inet.physicallayer.wireless.common.antenna.IsotropicAntenna\""
par WirelessNetworkTenHosts.host0.wlan[0].radio.antenna mobilityModule "\"^.^.^.mobility\""
par WirelessNetworkTenHosts.host0.wlan[0].radio.antenna numAntennas 1
par WirelessNetworkTenHosts.host0.wlan[0].radio.transmitter typename "\"inet.physicallayer.wireless.unitdisk.UnitDiskTransmitter\""
par WirelessNetworkTenHosts.host0.wlan[0].radio.transmitter preambleDuration 0s
attr unit s
par WirelessNetworkTenHosts.host0.wlan[0].radio.transmitter headerLength 96b
attr unit b
par WirelessNetworkTenHosts.host0.wlan[0].radio.transmitter bitrate 1e+06bps
attr unit bps
par WirelessNetworkTenHosts.host0.wlan[0].radio.transmitter communicationRange 500m
attr unit m
par WirelessNetworkTenHosts.host0.wlan[0].radio.transmitter interferenceRange 500m
attr unit m
par WirelessNetworkTenHosts.host0.wlan[0].radio.transmitter detectionRange 500m
attr unit m
par WirelessNetworkTenHosts.host0.wlan[0].radio.receiver typename "\"inet.physicallayer.wireless.unitdisk.UnitDiskReceiver\""
par WirelessNetworkTenHosts.host0.wlan[0].radio.receiver ignoreInterference true
par WirelessNetworkTenHosts.host0.wlan[0].radio typename "\"inet.physicallayer.wireless.unitdisk.UnitDiskRadio\""
par WirelessNetworkTenHosts.host0.wlan[0].radio radioMediumModule "\"radioMedium\""
par WirelessNetworkTenHosts.host0.wlan[0].radio energySourceModule "\"\""
par WirelessNetworkTenHosts.host0.wlan[0].radio initialRadioMode "\"off\""
attr enum off,sleep,receiver,transmitter,transceiver
par WirelessNetworkTenHosts.host0.wlan[0].radio switchingTimes "\"ms 0 0 0 0 0 0 0 0 0 0 0 0 0 0 0 0 0 0 0 0 0 0 0 0 0\""
par WirelessNetworkTenHosts.host0.wlan[0].radio sendRawBytes false
par WirelessNetworkTenHosts.host0.wlan[0].radio separateTransmissionParts false
par WirelessNetworkTenHosts.host0.wlan[0].radio separateReceptionParts false
par WirelessNetworkTenHosts.host0.wlan[0].radio displayCommunicationRange false
par WirelessNetworkTenHosts.host0.wlan[0].radio displayInterferenceRange false
scalar WirelessNetworkTenHosts.host0.wlan[0].radio radioMode:count 5
attr interpolationmode sample-hold
attr recordingmode count
attr source radioModeChanged
attr title "Radio mode, count"
scalar WirelessNetworkTenHosts.host0.wlan[0].radio receptionState:count 7
attr interpolationmode sample-hold
attr recordingmode count
attr source receptionStateChanged
attr title "Radio reception state, count"
scalar WirelessNetworkTenHosts.host0.wlan[0].radio transmissionState:count 4
attr interpolationmode sample-hold
attr recordingmode count
attr source transmissionStateChanged
attr title "Radio transmission state, count"
statistic WirelessNetworkTenHosts.host0.wlan[0].radio minSnir:histogram
field count 0
field mean nan
field stddev nan
field min nan
field max nan
field sum 0
field sqrsum 0
attr recordingmode histogram
attr source minimumSnir(packetSentToUpper)
attr title "Min SNIR"
bin	-inf	0
bin	0	0
bin	1	0
statistic WirelessNetworkTenHosts.host0.wlan[0].radio packetErrorRate:histogram
field count 2
field mean 0
field stddev 0
field min 0
field max 0
field sum 0
field sqrsum 0
[...]
attr interpolationmode none
attr recordingmode sum(packetBytes)
attr source packetDropReasonIsInterfaceDown(packetDropped)
attr title "packet drops: interface down, sum(packetBytes)"
scalar WirelessNetworkTenHosts.host9.wlan[0] packetDropNoCarrier:count 0
attr interpolationmode none
attr recordingmode count
attr source packetDropReasonIsNoCarrier(packetDropped)
attr title "packet drops: no carrier, count"
scalar WirelessNetworkTenHosts.host9.wlan[0] packetDropNoCarrier:sum(packetBytes) 0
attr interpolationmode none
attr recordingmode sum(packetBytes)
attr source packetDropReasonIsNoCarrier(packetDropped)
attr title "packet drops: no carrier, sum(packetBytes)"
par WirelessNetworkTenHosts.host9.ipv4.transportIn.channel typename "\"ned.IdealChannel\""
par WirelessNetworkTenHosts.host9.ipv4.up.out[0].channel typename "\"ned.IdealChannel\""
par WirelessNetworkTenHosts.host9.ipv4.lp.out[2].channel typename "\"ned.IdealChannel\""
par WirelessNetworkTenHosts.host9.ipv4.ifIn.channel typename "\"ned.IdealChannel\""
par WirelessNetworkTenHosts.host9.ipv4.configurator typename "\"inet.networklayer.configurator.ipv4.Ipv4NodeConfigurator\""
par WirelessNetworkTenHosts.host9.ipv4.configurator interfaceTableModule "\"WirelessNetworkTenHosts.host9.interfaceTable\""
par WirelessNetworkTenHosts.host9.ipv4.configurator routingTableModule "\"WirelessNetworkTenHosts.host9.ipv4.routingTable\""
par WirelessNetworkTenHosts.host9.ipv4.configurator networkConfiguratorModule "\"configurator\""
par WirelessNetworkTenHosts.host9.ipv4.configurator configureRoutingTable true
par WirelessNetworkTenHosts.host9.ipv4.routingTable typename "\"inet.networklayer.ipv4.Ipv4RoutingTable\""
par WirelessNetworkTenHosts.host9.ipv4.routingTable interfaceTableModule "\"WirelessNetworkTenHosts.host9.interfaceTable\""
par WirelessNetworkTenHosts.host9.ipv4.routingTable routerId "\"auto\""
par WirelessNetworkTenHosts.host9.ipv4.routingTable netmaskRoutes "\"*\""
par WirelessNetworkTenHosts.host9.ipv4.routingTable forwarding false
par WirelessNetworkTenHosts.host9.ipv4.routingTable multicastForwarding false
par WirelessNetworkTenHosts.host9.ipv4.routingTable useAdminDist false
par WirelessNetworkTenHosts.host9.ipv4.routingTable routingFile "\"\""
par WirelessNetworkTenHosts.host9.ipv4.natTable typename "\"inet.networklayer.ipv4.Ipv4NatTable\""
par WirelessNetworkTenHosts.host9.ipv4.natTable networkProtocolModule "\"^.ip\""
par WirelessNetworkTenHosts.host9.ipv4.natTable config "<config/> at content:1"
par WirelessNetworkTenHosts.host9.ipv4.up typename "\"inet.common.MessageDispatcher\""
par WirelessNetworkTenHosts.host9.ipv4.up displayStringTextFormat "\"processed %p pk (%l)\""
par WirelessNetworkTenHosts.host9.ipv4.up forwardServiceRegistration true
par WirelessNetworkTenHosts.host9.ipv4.up forwardProtocolRegistration true
par WirelessNetworkTenHosts.host9.ipv4.igmp typename "\"inet.networklayer.ipv4.Igmpv2\""
par WirelessNetworkTenHosts.host9.ipv4.igmp interfaceTableModule "\"WirelessNetworkTenHosts.host9.interfaceTable\""
par WirelessNetworkTenHosts.host9.ipv4.igmp routingTableModule "\"WirelessNetworkTenHosts.host9.ipv4.routingTable\""
par WirelessNetworkTenHosts.host9.ipv4.igmp crcMode "\"declared\""
attr enum declared,computed
par WirelessNetworkTenHosts.host9.ipv4.igmp enabled true
par WirelessNetworkTenHosts.host9.ipv4.igmp robustnessVariable 2
par WirelessNetworkTenHosts.host9.ipv4.igmp queryInterval 125s
attr unit s
par WirelessNetworkTenHosts.host9.ipv4.igmp queryResponseInterval 10s
attr unit s
par WirelessNetworkTenHosts.host9.ipv4.igmp groupMembershipInterval 260s
attr unit s
par WirelessNetworkTenHosts.host9.ipv4.igmp otherQuerierPresentInterval 255s
attr unit s
par WirelessNetworkTenHosts.host9.ipv4.igmp startupQueryInterval 31.25s
attr unit s
par WirelessNetworkTenHosts.host9.ipv4.igmp startupQueryCount 2
par WirelessNetworkTenHosts.host9.ipv4.igmp lastMemberQueryInterval 1s
attr unit s
par WirelessNetworkTenHosts.host9.ipv4.igmp lastMemberQueryCount 2
par WirelessNetworkTenHosts.host9.ipv4.igmp unsolicitedReportInterval 10s
attr unit s
par WirelessNetworkTenHosts.host9.ipv4.icmp typename "\"inet.networklayer.ipv4.Icmp\""
par WirelessNetworkTenHosts.host9.ipv4.icmp interfaceTableModule "\"WirelessNetworkTenHosts.host9.interfaceTable\""
par WirelessNetworkTenHosts.host9.ipv4.icmp routingTableModule "\"WirelessNetworkTenHosts.host9.ipv4.routingTable\""
par WirelessNetworkTenHosts.host9.ipv4.icmp crcMode "\"declared\""
attr enum declared,computed
attr mutable ""
par WirelessNetworkTenHosts.host9.ipv4.icmp quoteLength 8B
attr mutable ""
attr unit B
par WirelessNetworkTenHosts.host9.ipv4.mp typename "\"inet.common.MessageDispatcher\""
par WirelessNetworkTenHosts.host9.ipv4.mp displayStringTextFormat "\"processed %p pk (%l)\""
par WirelessNetworkTenHosts.host9.ipv4.mp forwardServiceRegistration true
par WirelessNetworkTenHosts.host9.ipv4.mp forwardProtocolRegistration true
par WirelessNetworkTenHosts.host9.ipv4.ip typename "\"inet.networklayer.ipv4.Ipv4\""
par WirelessNetworkTenHosts.host9.ipv4.ip interfaceTableModule "\"WirelessNetworkTenHosts.host9.interfaceTable\""
par WirelessNetworkTenHosts.host9.ipv4.ip routingTableModule "\"WirelessNetworkTenHosts.host9.ipv4.routingTable\""
par WirelessNetworkTenHosts.host9.ipv4.ip arpModule "\"WirelessNetworkTenHosts.host9.ipv4.arp\""
par WirelessNetworkTenHosts.host9.ipv4.ip icmpModule "\"WirelessNetworkTenHosts.host9.ipv4.icmp\""
par WirelessNetworkTenHosts.host9.ipv4.ip crcMode "\"declared\""
attr enum declared,computed
par WirelessNetworkTenHosts.host9.ipv4.ip timeToLive 32
par WirelessNetworkTenHosts.host9.ipv4.ip multicastTimeToLive 32
par WirelessNetworkTenHosts.host9.ipv4.ip fragmentTimeout 60s
attr unit s
par WirelessNetworkTenHosts.host9.ipv4.ip limitedBroadcast false
par WirelessNetworkTenHosts.host9.ipv4.ip directBroadcastInterfaces "\"\""
scalar WirelessNetworkTenHosts.host9.ipv4.ip packetDropAddressResolutionFailed:count 0
attr interpolationmode none
attr recordingmode count
attr source packetDropReasonIsAddressResolutionFailed(packetDropped)
attr title "packet drop: address resolution failed, count"
scalar WirelessNetworkTenHosts.host9.ipv4.ip packetDropAddressResolutionFailed:sum(packetBytes) 0
attr interpolationmode none
attr recordingmode sum(packetBytes)
attr source packetDropReasonIsAddressResolutionFailed(packetDropped)
attr title "packet drop: address resolution failed, sum(packetBytes)"
scalar WirelessNetworkTenHosts.host9.ipv4.ip packetDropHopLimitReached:count 0
attr interpolationmode none
attr recordingmode count
attr source packetDropReasonIsHopLimitReached(packetDropped)
attr title "packet drop: hop limit reached, count"
scalar WirelessNetworkTenHosts.host9.ipv4.ip packetDropHopLimitReached:sum(packetBytes) 0
attr interpolationmode none
attr recordingmode sum(packetBytes)
attr source packetDropReasonIsHopLimitReached(packetDropped)
attr title "packet drop: hop limit reached, sum(packetBytes)"
scalar WirelessNetworkTenHosts.host9.ipv4.ip packetDropForwardingDisabled:count 0
attr interpolationmode none
attr recordingmode count
attr source packetDropReasonIsForwardingDisabled(packetDropped)
attr title "packet drop: forwarding disabled, count"
scalar WirelessNetworkTenHosts.host9.ipv4.ip packetDropForwardingDisabled:sum(packetBytes) 0
attr interpolationmode none
attr recordingmode sum(packetBytes)
attr source packetDropReasonIsForwardingDisabled(packetDropped)
attr title "packet drop: forwarding disabled, sum(packetBytes)"
scalar WirelessNetworkTenHosts.host9.ipv4.ip packetDropNoInterfaceFound:count 0
attr interpolationmode none
attr recordingmode count
attr source packetDropReasonIsNoInterfaceFound(packetDropped)
attr title "packet drop: no interface found, count"
scalar WirelessNetworkTenHosts.host9.ipv4.ip packetDropNoInterfaceFound:sum(packetBytes) 0
attr interpolationmode none
attr recordingmode sum(packetBytes)
attr source packetDropReasonIsNoInterfaceFound(packetDropped)
attr title "packet drop: no interface found, sum(packetBytes)"
scalar WirelessNetworkTenHosts.host9.ipv4.ip packetDropNoRouteFound:count 0
attr interpolationmode none
attr recordingmode count
attr source packetDropReasonIsNoRouteFound(packetDropped)
attr title "packet drop: no route found, count"
scalar WirelessNetworkTenHosts.host9.ipv4.ip packetDropNoRouteFound:sum(packetBytes) 0
attr interpolationmode none
attr recordingmode sum(packetBytes)
attr source packetDropReasonIsNoRouteFound(packetDropped)
attr title "packet drop: no route found, sum(packetBytes)"
scalar WirelessNetworkTenHosts.host9.ipv4.ip packetDropUndefined:count 0
attr interpolationmode none
attr recordingmode count
attr source packetDropReasonIsUndefined(packetDropped)
attr title "packet drop: undefined, count"
scalar WirelessNetworkTenHosts.host9.ipv4.ip packetDropUndefined:sum(packetBytes) 0
attr interpolationmode none
attr recordingmode sum(packetBytes)
attr source packetDropReasonIsUndefined(packetDropped)
attr title "packet drop: undefined, sum(packetBytes)"
par WirelessNetworkTenHosts.host9.ipv4.arp typename "\"inet.networklayer.arp.ipv4.GlobalArp\""
par WirelessNetworkTenHosts.host9.ipv4.arp interfaceTableModule "\"WirelessNetworkTenHosts.host9.interfaceTable\""
par WirelessNetworkTenHosts.host9.ipv4.arp addressType "\"ipv4\""
attr enum ipv4,ipv6,mac,moduleid,modulepath
par WirelessNetworkTenHosts.host9.ipv4.lp typename "\"inet.common.MessageDispatcher\""
par WirelessNetworkTenHosts.host9.ipv4.lp displayStringTextFormat "\"processed %p pk (%l)\""
par WirelessNetworkTenHosts.host9.ipv4.lp forwardServiceRegistration true
par WirelessNetworkTenHosts.host9.ipv4.lp forwardProtocolRegistration true
par WirelessNetworkTenHosts.host9.ipv4 typename "\"inet.networklayer.ipv4.Ipv4NetworkLayer\""
par WirelessNetworkTenHosts.host9.ipv4 forwarding false
par WirelessNetworkTenHosts.host9.ipv4 multicastForwarding false
par WirelessNetworkTenHosts.host9.ipv4 interfaceTableModule "\"WirelessNetworkTenHosts.host9.interfaceTable\""
par WirelessNetworkTenHosts.host9.ipv4 displayStringTextFormat "\"%i\""
par WirelessNetworkTenHosts.host9.nl typename "\"inet.common.MessageDispatcher\""
par WirelessNetworkTenHosts.host9.nl displayStringTextFormat "\"processed %p pk (%l)\""
par WirelessNetworkTenHosts.host9.nl forwardServiceRegistration true
par WirelessNetworkTenHosts.host9.nl forwardProtocolRegistration true
par WirelessNetworkTenHosts.host9.udp typename "\"inet.transportlayer.udp.Udp\""
par WirelessNetworkTenHosts.host9.udp interfaceTableModule "\"WirelessNetworkTenHosts.host9.interfaceTable\""
par WirelessNetworkTenHosts.host9.udp icmpModule "\"^.ipv4.icmp\""
par WirelessNetworkTenHosts.host9.udp icmpv6Module "\"^.ipv6.icmpv6\""
par WirelessNetworkTenHosts.host9.udp crcMode "\"declared\""
attr enum disabled,declared,computed
par WirelessNetworkTenHosts.host9.udp defaultMulticastLoop true
scalar WirelessNetworkTenHosts.host9.udp packetReceived:count 1
attr interpolationmode none
attr recordingmode count
attr source packetReceived
attr title "packets received, count"
scalar WirelessNetworkTenHosts.host9.udp packetReceived:sum(packetBytes) 51
attr interpolationmode none
attr recordingmode sum(packetBytes)
attr source packetReceived
attr title "packets received, sum(packetBytes)"
scalar WirelessNetworkTenHosts.host9.udp packetSent:count 0
attr interpolationmode none
attr recordingmode count
attr source packetSent
attr title "packets sent, count"
scalar WirelessNetworkTenHosts.host9.udp packetSent:sum(packetBytes) 0
attr interpolationmode none
attr recordingmode sum(packetBytes)
attr source packetSent
attr title "packets sent, sum(packetBytes)"
scalar WirelessNetworkTenHosts.host9.udp passedUpPk:count 1
attr interpolationmode none
attr recordingmode count
attr source packetSentToUpper
attr title "packets passed up, count"
scalar WirelessNetworkTenHosts.host9.udp droppedPkWrongPort:count 0
attr interpolationmode none
attr recordingmode count
attr source packetDropReasonIsNoPortFound(packetDropped)
attr title "packets dropped (wrong port), count"
scalar WirelessNetworkTenHosts.host9.udp droppedPkBadChecksum:count 0
attr interpolationmode none
attr recordingmode count
attr source packetDropReasonIsIncorrectlyReceived(packetDropped)
attr title "packets dropped (checksum error), count"
par WirelessNetworkTenHosts.host9.tcp typename "\"inet.transportlayer.tcp.Tcp\""
par WirelessNetworkTenHosts.host9.tcp crcMode "\"declared\""
attr enum declared,computed
par WirelessNetworkTenHosts.host9.tcp advertisedWindow 7504
par WirelessNetworkTenHosts.host9.tcp delayedAcksEnabled false
par WirelessNetworkTenHosts.host9.tcp nagleEnabled true
par WirelessNetworkTenHosts.host9.tcp limitedTransmitEnabled false
par WirelessNetworkTenHosts.host9.tcp increasedIWEnabled false
par WirelessNetworkTenHosts.host9.tcp sackSupport false
par WirelessNetworkTenHosts.host9.tcp windowScalingSupport false
par WirelessNetworkTenHosts.host9.tcp windowScalingFactor -1
par WirelessNetworkTenHosts.host9.tcp timestampSupport false
par WirelessNetworkTenHosts.host9.tcp mss 536
par WirelessNetworkTenHosts.host9.tcp msl 120s
attr unit s
par WirelessNetworkTenHosts.host9.tcp tcpAlgorithmClass "\"TcpReno\""
par WirelessNetworkTenHosts.host9.tcp useDataNotification false
par WirelessNetworkTenHosts.host9.tcp dupthresh 3
par WirelessNetworkTenHosts.host9.tcp initialSsthresh 4294967295
par WirelessNetworkTenHosts.host9.tcp stopOperationExtraTime 0s
attr unit s
par WirelessNetworkTenHosts.host9.tcp stopOperationTimeout 2s
attr unit s
par WirelessNetworkTenHosts.host9.tcp ecnWillingness false
par WirelessNetworkTenHosts.host9.tcp dctcpGamma 0.0625
par WirelessNetworkTenHosts.host9.tn typename "\"inet.common.MessageDispatcher\""
par WirelessNetworkTenHosts.host9.tn displayStringTextFormat "\"processed %p pk (%l)\""
par WirelessNetworkTenHosts.host9.tn forwardServiceRegistration true
par WirelessNetworkTenHosts.host9.tn forwardProtocolRegistration true
par WirelessNetworkTenHosts.host9.app[0] typename "\"inet.applications.udpapp.nsbAppSink\""
par WirelessNetworkTenHosts.host9.app[0] interfaceTableModule "\"WirelessNetworkTenHosts.host9.interfaceTable\""
par WirelessNetworkTenHosts.host9.app[0] startTime 0s
attr unit s
par WirelessNetworkTenHosts.host9.app[0] stopTime -1s
attr unit s
par WirelessNetworkTenHosts.host9.app[0] localPort 5000
par WirelessNetworkTenHosts.host9.app[0] receiveBroadcast false
par WirelessNetworkTenHosts.host9.app[0] multicastGroup "\"\""
par WirelessNetworkTenHosts.host9.app[0] multicastSources "\"\""
par WirelessNetworkTenHosts.host9.app[0] serverAddress "\"127.0.0.1\""
par WirelessNetworkTenHosts.host9.app[0] serverPort 65432
par WirelessNetworkTenHosts.host9.app[0] stopOperationExtraTime -1s
attr unit s
par WirelessNetworkTenHosts.host9.app[0] stopOperationTimeout 2s
attr unit s
scalar WirelessNetworkTenHosts.host9.app[0] packetReceived:count 0
attr interpolationmode none
attr recordingmode count
attr source packetReceived
attr title "packets received, count"
scalar WirelessNetworkTenHosts.host9.app[0] packetReceived:sum(packetBytes) 0
attr interpolationmode none
attr recordingmode sum(packetBytes)
attr source packetReceived
attr title "packets received, sum(packetBytes)"
statistic WirelessNetworkTenHosts.host9.app[0] endToEndDelay:histogram
field count 0
field mean nan
field stddev nan
field min nan
field max nan
field sum 0
field sqrsum 0
attr interpolationmode none
attr recordingmode histogram
attr source dataAge(packetReceived)
attr title "end-to-end delay"
attr unit s
bin	-inf	0
bin	0	0
bin	1	0
par WirelessNetworkTenHosts.host9.app[1] typename "\"inet.applications.udpapp.nsbBasicApp\""
par WirelessNetworkTenHosts.host9.app[1] serverAddress "\"127.0.0.1\""
par WirelessNetworkTenHosts.host9.app[1] serverPort 65432
par WirelessNetworkTenHosts.host9.app[1] interfaceTableModule "\"WirelessNetworkTenHosts.host9.interfaceTable\""
par WirelessNetworkTenHosts.host9.app[1] clockModule "\"\""
par WirelessNetworkTenHosts.host9.app[1] localPort -1
par WirelessNetworkTenHosts.host9.app[1] destAddresses "\"255.255.255.0\""
par WirelessNetworkTenHosts.host9.app[1] localAddress "\"\""
par WirelessNetworkTenHosts.host9.app[1] packetName "\"UDPData\""
par WirelessNetworkTenHosts.host9.app[1] destPort 5000
par WirelessNetworkTenHosts.host9.app[1] messageLength 1000B
attr unit B
par WirelessNetworkTenHosts.host9.app[1] startTime 0.0244907s
attr unit s
par WirelessNetworkTenHosts.host9.app[1] stopTime -1s
attr unit s
par WirelessNetworkTenHosts.host9.app[1] sendInterval exponential(12ms)
attr unit s
par WirelessNetworkTenHosts.host9.app[1] timeToLive -1
par WirelessNetworkTenHosts.host9.app[1] dontFragment false
par WirelessNetworkTenHosts.host9.app[1] dscp -1
par WirelessNetworkTenHosts.host9.app[1] tos -1
par WirelessNetworkTenHosts.host9.app[1] multicastInterface "\"\""
par WirelessNetworkTenHosts.host9.app[1] receiveBroadcast false
par WirelessNetworkTenHosts.host9.app[1] joinLocalMulticastGroups false
par WirelessNetworkTenHosts.host9.app[1] stopOperationExtraTime -1s
attr unit s
par WirelessNetworkTenHosts.host9.app[1] stopOperationTimeout 2s
attr unit s
scalar WirelessNetworkTenHosts.host9.app[1] "packets sent" 0
scalar WirelessNetworkTenHosts.host9.app[1] "packets received" 0
scalar WirelessNetworkTenHosts.host9.app[1] packetReceived:count 0
attr interpolationmode none
attr recordingmode count
attr source packetReceived
attr title "packets received, count"
scalar WirelessNetworkTenHosts.host9.app[1] packetReceived:sum(packetBytes) 0
attr interpolationmode none
attr recordingmode sum(packetBytes)
attr source packetReceived
attr title "packets received, sum(packetBytes)"
statistic WirelessNetworkTenHosts.host9.app[1] rcvdPkLifetime:stats
field count 0
field mean nan
field stddev nan
field min nan
field max nan
field sum 0
field sqrsum 0
attr interpolationmode none
attr recordingmode stats
attr source dataAge(packetReceived)
attr title "received packet lifetime"
attr unit s
scalar WirelessNetworkTenHosts.host9.app[1] packetSent:count 0
attr interpolationmode none
attr recordingmode count
attr source packetSent
attr title "packets sent, count"
scalar WirelessNetworkTenHosts.host9.app[1] packetSent:sum(packetBytes) 0
attr interpolationmode none
attr recordingmode sum(packetBytes)
attr source packetSent
attr title "packets sent, sum(packetBytes)"
par WirelessNetworkTenHosts.host9.at typename "\"inet.common.MessageDispatcher\""
par WirelessNetworkTenHosts.host9.at displayStringTextFormat "\"processed %p pk (%l)\""
par WirelessNetworkTenHosts.host9.at forwardServiceRegistration true
par WirelessNetworkTenHosts.host9.at forwardProtocolRegistration true
par WirelessNetworkTenHosts.host9 typename "\"inet.node.inet.WirelessHost\""
par WirelessNetworkTenHosts.host9 hasStatus false
par WirelessNetworkTenHosts.host9 osgModel "\"\""
par WirelessNetworkTenHosts.host9 osgModelColor "\"\""
par WirelessNetworkTenHosts.host9 canvasImage "\"\""
par WirelessNetworkTenHosts.host9 canvasImageColor "\"\""
par WirelessNetworkTenHosts.host9 recordPcap false
par WirelessNetworkTenHosts.host9 numPcapRecorders 0
par WirelessNetworkTenHosts.host9 numLoInterfaces 1
par WirelessNetworkTenHosts.host9 numWlanInterfaces 1
par WirelessNetworkTenHosts.host9 numEthInterfaces 0
par WirelessNetworkTenHosts.host9 numPppInterfaces 0
par WirelessNetworkTenHosts.host9 numTunInterfaces 0
par WirelessNetworkTenHosts.host9 numVirtInterfaces 0
par WirelessNetworkTenHosts.host9 fcsMode "\"declared\""
attr enum declared,computed
par WirelessNetworkTenHosts.host9 hasIpv4 true
par WirelessNetworkTenHosts.host9 hasIpv6 false
par WirelessNetworkTenHosts.host9 hasGn false
par WirelessNetworkTenHosts.host9 forwarding false
par WirelessNetworkTenHosts.host9 multicastForwarding false
par WirelessNetworkTenHosts.host9 hasUdp true
par WirelessNetworkTenHosts.host9 hasTcp true
par WirelessNetworkTenHosts.host9 hasSctp false
par WirelessNetworkTenHosts.host9 numApps 2
par WirelessNetworkTenHosts typename "\"simulations.WirelessNetworkTenHosts\""

